Program Version,EnergyPlus, Version 9.3.0-60e3a1f2d5 (No OpenGL), YMD=2022.07.11 15:26
! This file shows details about the branches, nodes, and other
! elements of the flow connections.
! This file is intended for use in "debugging" potential problems
! that may also be detected by the program, but may be more easily
! identified by "eye".
! This file is also intended to support software which draws a
! schematic diagram of the HVAC system.
! ===============================================================
! #Nodes,<Number of Unique Nodes>
 #Nodes,285
! <Node>,<NodeNumber>,<Node Name>,<Node Fluid Type>,<# Times Node Referenced After Definition>
 Node,1,BATH_ZN_1_FLR_1 EXHAUST FAN NODE,Air,2
 Node,2,BATH_ZN_1_FLR_1 VAV BOX OUTLET NODE NAME,Air,4
 Node,3,CAFETERIA_ZN_1_FLR_1 EXHAUST FAN NODE,Air,2
 Node,4,CAFETERIA_ZN_1_FLR_1 DIRECT AIR INLET NODE NAME,Air,4
 Node,5,COMPUTER_CLASS_ZN_1_FLR_1 VAV BOX OUTLET NODE NAME,Air,4
 Node,6,CORNER_CLASS_1_POD_1_ZN_1_FLR_1 VAV BOX OUTLET NODE NAME,Air,4
 Node,7,CORNER_CLASS_1_POD_2_ZN_1_FLR_1 VAV BOX OUTLET NODE NAME,Air,4
 Node,8,CORNER_CLASS_1_POD_3_ZN_1_FLR_1 VAV BOX OUTLET NODE NAME,Air,4
 Node,9,CORNER_CLASS_2_POD_1_ZN_1_FLR_1 VAV BOX OUTLET NODE NAME,Air,4
 Node,10,CORNER_CLASS_2_POD_2_ZN_1_FLR_1 VAV BOX OUTLET NODE NAME,Air,4
 Node,11,CORNER_CLASS_2_POD_3_ZN_1_FLR_1 VAV BOX OUTLET NODE NAME,Air,4
 Node,12,CORRIDOR_POD_1_ZN_1_FLR_1 VAV BOX OUTLET NODE NAME,Air,4
 Node,13,CORRIDOR_POD_2_ZN_1_FLR_1 VAV BOX OUTLET NODE NAME,Air,4
 Node,14,CORRIDOR_POD_3_ZN_1_FLR_1 VAV BOX OUTLET NODE NAME,Air,4
 Node,15,GYM_ZN_1_FLR_1 DIRECT AIR INLET NODE NAME,Air,4
 Node,16,KITCHEN_ZN_1_FLR_1 EXHAUST FAN NODE,Air,2
 Node,17,KITCHEN_ZN_1_FLR_1 DIRECT AIR INLET NODE NAME,Air,4
 Node,18,LIBRARY_MEDIA_CENTER_ZN_1_FLR_1 VAV BOX OUTLET NODE NAME,Air,4
 Node,19,LOBBY_ZN_1_FLR_1 VAV BOX OUTLET NODE NAME,Air,4
 Node,20,MAIN_CORRIDOR_ZN_1_FLR_1 VAV BOX OUTLET NODE NAME,Air,4
 Node,21,MECH_ZN_1_FLR_1 VAV BOX OUTLET NODE NAME,Air,4
 Node,22,MULT_CLASS_1_POD_1_ZN_1_FLR_1 VAV BOX OUTLET NODE NAME,Air,4
 Node,23,MULT_CLASS_1_POD_2_ZN_1_FLR_1 VAV BOX OUTLET NODE NAME,Air,4
 Node,24,MULT_CLASS_1_POD_3_ZN_1_FLR_1 VAV BOX OUTLET NODE NAME,Air,4
 Node,25,MULT_CLASS_2_POD_1_ZN_1_FLR_1 VAV BOX OUTLET NODE NAME,Air,4
 Node,26,MULT_CLASS_2_POD_2_ZN_1_FLR_1 VAV BOX OUTLET NODE NAME,Air,4
 Node,27,MULT_CLASS_2_POD_3_ZN_1_FLR_1 VAV BOX OUTLET NODE NAME,Air,4
 Node,28,OFFICES_ZN_1_FLR_1 VAV BOX OUTLET NODE NAME,Air,4
 Node,29,PSZ-AC_1:6_OAINLET NODE,Air,3
 Node,30,PSZ-AC_2:5_OAINLET NODE,Air,3
 Node,31,PSZ-AC_2:7_OAINLET NODE,Air,3
 Node,32,VAV_OTHER_OAINLET NODE,Air,3
 Node,33,VAV_POD_1_OAINLET NODE,Air,3
 Node,34,VAV_POD_2_OAINLET NODE,Air,3
 Node,35,VAV_POD_3_OAINLET NODE,Air,3
 Node,36,PSZ-AC_1:6 SUPPLY EQUIPMENT INLET NODE,Air,3
 Node,37,PSZ-AC_1:6_OA-PSZ-AC_1:6_COOLCNODE,Air,6
 Node,38,PSZ-AC_1:6_COOLC-PSZ-AC_1:6_HEATCNODE,Air,6
 Node,39,PSZ-AC_1:6_HEATC-PSZ-AC_1:6_FANNODE,Air,8
 Node,40,PSZ-AC_1:6 SUPPLY EQUIPMENT OUTLET NODE,Air,9
 Node,41,PSZ-AC_2:5 SUPPLY EQUIPMENT INLET NODE,Air,3
 Node,42,PSZ-AC_2:5_OA-PSZ-AC_2:5_COOLCNODE,Air,6
 Node,43,PSZ-AC_2:5_COOLC-PSZ-AC_2:5_HEATCNODE,Air,6
 Node,44,PSZ-AC_2:5_HEATC-PSZ-AC_2:5_FANNODE,Air,8
 Node,45,PSZ-AC_2:5 SUPPLY EQUIPMENT OUTLET NODE,Air,9
 Node,46,PSZ-AC_2:7 SUPPLY EQUIPMENT INLET NODE,Air,3
 Node,47,PSZ-AC_2:7_OA-PSZ-AC_2:7_COOLCNODE,Air,6
 Node,48,PSZ-AC_2:7_COOLC-PSZ-AC_2:7_HEATCNODE,Air,6
 Node,49,PSZ-AC_2:7_HEATC-PSZ-AC_2:7_FANNODE,Air,8
 Node,50,PSZ-AC_2:7 SUPPLY EQUIPMENT OUTLET NODE,Air,9
 Node,51,VAV_OTHER SUPPLY EQUIPMENT INLET NODE,Air,3
 Node,52,VAV_OTHER_OA-VAV_OTHER_COOLCNODE,Air,6
 Node,53,VAV_OTHER_COOLC-VAV_OTHER_HEATCNODE,Air,6
 Node,54,VAV_OTHER_HEATC-VAV_OTHER_FANNODE,Air,8
 Node,55,VAV_OTHER SUPPLY EQUIPMENT OUTLET NODE,Air,9
 Node,56,VAV_POD_1 SUPPLY EQUIPMENT INLET NODE,Air,3
 Node,57,VAV_POD_1_OA-VAV_POD_1_COOLCNODE,Air,6
 Node,58,VAV_POD_1_COOLC-VAV_POD_1_HEATCNODE,Air,6
 Node,59,VAV_POD_1_HEATC-VAV_POD_1_FANNODE,Air,8
 Node,60,VAV_POD_1 SUPPLY EQUIPMENT OUTLET NODE,Air,9
 Node,61,VAV_POD_2 SUPPLY EQUIPMENT INLET NODE,Air,3
 Node,62,VAV_POD_2_OA-VAV_POD_2_COOLCNODE,Air,6
 Node,63,VAV_POD_2_COOLC-VAV_POD_2_HEATCNODE,Air,6
 Node,64,VAV_POD_2_HEATC-VAV_POD_2_FANNODE,Air,8
 Node,65,VAV_POD_2 SUPPLY EQUIPMENT OUTLET NODE,Air,9
 Node,66,VAV_POD_3 SUPPLY EQUIPMENT INLET NODE,Air,3
 Node,67,VAV_POD_3_OA-VAV_POD_3_COOLCNODE,Air,6
 Node,68,VAV_POD_3_COOLC-VAV_POD_3_HEATCNODE,Air,6
 Node,69,VAV_POD_3_HEATC-VAV_POD_3_FANNODE,Air,8
 Node,70,VAV_POD_3 SUPPLY EQUIPMENT OUTLET NODE,Air,9
 Node,71,HEATSYS1 DEMAND BYPASS PIPE INLET NODE,Water,1
 Node,72,HEATSYS1 DEMAND BYPASS PIPE OUTLET NODE,Water,1
 Node,73,HEATSYS1 DEMAND INLET NODE,Water,2
 Node,74,HEATSYS1 DEMAND INLET PIPE-HEATSYS1 DEMAND MIXER,Water,1
 Node,75,CORNER_CLASS_1_POD_1_ZN_1_FLR_1 VAV BOX REHEAT COILDEMAND INLET NODE,Water,1
 Node,76,CORNER_CLASS_1_POD_1_ZN_1_FLR_1 VAV BOX REHEAT COILDEMAND OUTLET NODE,Water,1
 Node,77,MULT_CLASS_2_POD_2_ZN_1_FLR_1 VAV BOX REHEAT COILDEMAND INLET NODE,Water,1
 Node,78,MULT_CLASS_2_POD_2_ZN_1_FLR_1 VAV BOX REHEAT COILDEMAND OUTLET NODE,Water,1
 Node,79,CORNER_CLASS_1_POD_3_ZN_1_FLR_1 VAV BOX REHEAT COILDEMAND INLET NODE,Water,1
 Node,80,CORNER_CLASS_1_POD_3_ZN_1_FLR_1 VAV BOX REHEAT COILDEMAND OUTLET NODE,Water,1
 Node,81,MULT_CLASS_1_POD_3_ZN_1_FLR_1 VAV BOX REHEAT COILDEMAND INLET NODE,Water,1
 Node,82,MULT_CLASS_1_POD_3_ZN_1_FLR_1 VAV BOX REHEAT COILDEMAND OUTLET NODE,Water,1
 Node,83,CORRIDOR_POD_3_ZN_1_FLR_1 VAV BOX REHEAT COILDEMAND INLET NODE,Water,1
 Node,84,CORRIDOR_POD_3_ZN_1_FLR_1 VAV BOX REHEAT COILDEMAND OUTLET NODE,Water,1
 Node,85,CORNER_CLASS_2_POD_3_ZN_1_FLR_1 VAV BOX REHEAT COILDEMAND INLET NODE,Water,1
 Node,86,CORNER_CLASS_2_POD_3_ZN_1_FLR_1 VAV BOX REHEAT COILDEMAND OUTLET NODE,Water,1
 Node,87,MULT_CLASS_2_POD_3_ZN_1_FLR_1 VAV BOX REHEAT COILDEMAND INLET NODE,Water,1
 Node,88,MULT_CLASS_2_POD_3_ZN_1_FLR_1 VAV BOX REHEAT COILDEMAND OUTLET NODE,Water,1
 Node,89,COMPUTER_CLASS_ZN_1_FLR_1 VAV BOX REHEAT COILDEMAND INLET NODE,Water,1
 Node,90,COMPUTER_CLASS_ZN_1_FLR_1 VAV BOX REHEAT COILDEMAND OUTLET NODE,Water,1
 Node,91,MAIN_CORRIDOR_ZN_1_FLR_1 VAV BOX REHEAT COILDEMAND INLET NODE,Water,1
 Node,92,MAIN_CORRIDOR_ZN_1_FLR_1 VAV BOX REHEAT COILDEMAND OUTLET NODE,Water,1
 Node,93,LOBBY_ZN_1_FLR_1 VAV BOX REHEAT COILDEMAND INLET NODE,Water,1
 Node,94,LOBBY_ZN_1_FLR_1 VAV BOX REHEAT COILDEMAND OUTLET NODE,Water,1
 Node,95,MECH_ZN_1_FLR_1 VAV BOX REHEAT COILDEMAND INLET NODE,Water,1
 Node,96,MECH_ZN_1_FLR_1 VAV BOX REHEAT COILDEMAND OUTLET NODE,Water,1
 Node,97,MULT_CLASS_1_POD_1_ZN_1_FLR_1 VAV BOX REHEAT COILDEMAND INLET NODE,Water,1
 Node,98,MULT_CLASS_1_POD_1_ZN_1_FLR_1 VAV BOX REHEAT COILDEMAND OUTLET NODE,Water,1
 Node,99,BATH_ZN_1_FLR_1 VAV BOX REHEAT COILDEMAND INLET NODE,Water,1
 Node,100,BATH_ZN_1_FLR_1 VAV BOX REHEAT COILDEMAND OUTLET NODE,Water,1
 Node,101,OFFICES_ZN_1_FLR_1 VAV BOX REHEAT COILDEMAND INLET NODE,Water,1
 Node,102,OFFICES_ZN_1_FLR_1 VAV BOX REHEAT COILDEMAND OUTLET NODE,Water,1
 Node,103,LIBRARY_MEDIA_CENTER_ZN_1_FLR_1 VAV BOX REHEAT COILDEMAND INLET NODE,Water,1
 Node,104,LIBRARY_MEDIA_CENTER_ZN_1_FLR_1 VAV BOX REHEAT COILDEMAND OUTLET NODE,Water,1
 Node,105,VAV_POD_1_HEATCDEMAND INLET NODE,Water,2
 Node,106,VAV_POD_1_HEATCDEMAND OUTLET NODE,Water,1
 Node,107,VAV_POD_2_HEATCDEMAND INLET NODE,Water,2
 Node,108,VAV_POD_2_HEATCDEMAND OUTLET NODE,Water,1
 Node,109,VAV_POD_3_HEATCDEMAND INLET NODE,Water,2
 Node,110,VAV_POD_3_HEATCDEMAND OUTLET NODE,Water,1
 Node,111,VAV_OTHER_HEATCDEMAND INLET NODE,Water,2
 Node,112,VAV_OTHER_HEATCDEMAND OUTLET NODE,Water,1
 Node,113,CORRIDOR_POD_1_ZN_1_FLR_1 VAV BOX REHEAT COILDEMAND INLET NODE,Water,1
 Node,114,CORRIDOR_POD_1_ZN_1_FLR_1 VAV BOX REHEAT COILDEMAND OUTLET NODE,Water,1
 Node,115,CORNER_CLASS_2_POD_1_ZN_1_FLR_1 VAV BOX REHEAT COILDEMAND INLET NODE,Water,1
 Node,116,CORNER_CLASS_2_POD_1_ZN_1_FLR_1 VAV BOX REHEAT COILDEMAND OUTLET NODE,Water,1
 Node,117,MULT_CLASS_2_POD_1_ZN_1_FLR_1 VAV BOX REHEAT COILDEMAND INLET NODE,Water,1
 Node,118,MULT_CLASS_2_POD_1_ZN_1_FLR_1 VAV BOX REHEAT COILDEMAND OUTLET NODE,Water,1
 Node,119,CORNER_CLASS_1_POD_2_ZN_1_FLR_1 VAV BOX REHEAT COILDEMAND INLET NODE,Water,1
 Node,120,CORNER_CLASS_1_POD_2_ZN_1_FLR_1 VAV BOX REHEAT COILDEMAND OUTLET NODE,Water,1
 Node,121,MULT_CLASS_1_POD_2_ZN_1_FLR_1 VAV BOX REHEAT COILDEMAND INLET NODE,Water,1
 Node,122,MULT_CLASS_1_POD_2_ZN_1_FLR_1 VAV BOX REHEAT COILDEMAND OUTLET NODE,Water,1
 Node,123,CORRIDOR_POD_2_ZN_1_FLR_1 VAV BOX REHEAT COILDEMAND INLET NODE,Water,1
 Node,124,CORRIDOR_POD_2_ZN_1_FLR_1 VAV BOX REHEAT COILDEMAND OUTLET NODE,Water,1
 Node,125,CORNER_CLASS_2_POD_2_ZN_1_FLR_1 VAV BOX REHEAT COILDEMAND INLET NODE,Water,1
 Node,126,CORNER_CLASS_2_POD_2_ZN_1_FLR_1 VAV BOX REHEAT COILDEMAND OUTLET NODE,Water,1
 Node,127,HEATSYS1 DEMAND MIXER-HEATSYS1 DEMAND OUTLET PIPE,Water,1
 Node,128,HEATSYS1 DEMAND OUTLET NODE,Water,2
 Node,129,HEATSYS1 PUMP-HEATSYS1 BOILERNODE,Water,1
 Node,130,HEATSYS1 SUPPLY EQUIPMENT OUTLET NODE,Water,2
 Node,131,HEATSYS1 SUPPLY EQUIP BYPASS INLET NODE,Water,1
 Node,132,HEATSYS1 SUPPLY EQUIP BYPASS OUTLET NODE,Water,1
 Node,133,HEATSYS1 SUPPLY INLET NODE,Water,2
 Node,134,HEATSYS1 PUMP-HEATSYS1 BOILERNODEVIACONNECTOR,Water,1
 Node,135,HEATSYS1 SUPPLY MIXER-HEATSYS1 SUPPLY OUTLET PIPE,Water,1
 Node,136,HEATSYS1 SUPPLY OUTLET NODE,Water,4
 Node,137,SWHSYS1 DEMAND BYPASS PIPE INLET NODE,Water,1
 Node,138,SWHSYS1 DEMAND BYPASS PIPE OUTLET NODE,Water,1
 Node,139,SWHSYS1 DEMAND INLET NODE,Water,2
 Node,140,SWHSYS1 DEMAND INLET PIPE-SWHSYS1 DEMAND MIXER,Water,1
 Node,141,BATH_ZN_1_FLR_1 SHW_DEFAULT WATER INLET NODE,Water,1
 Node,142,BATH_ZN_1_FLR_1 SHW_DEFAULT WATER OUTLET NODE,Water,1
 Node,143,KITCHEN_ZN_1_FLR_1 SHW_DEFAULT WATER INLET NODE,Water,1
 Node,144,KITCHEN_ZN_1_FLR_1 SHW_DEFAULT WATER OUTLET NODE,Water,1
 Node,145,SWHSYS1 DEMAND MIXER-SWHSYS1 DEMAND OUTLET PIPE,Water,1
 Node,146,SWHSYS1 DEMAND OUTLET NODE,Water,2
 Node,147,SWHSYS1 PUMP-SWHSYS1 WATER HEATERNODE,Water,1
 Node,148,SWHSYS1 SUPPLY EQUIPMENT OUTLET NODE,Water,1
 Node,149,SWHSYS1 SUPPLY EQUIP BYPASS INLET NODE,Water,1
 Node,150,SWHSYS1 SUPPLY EQUIP BYPASS OUTLET NODE,Water,1
 Node,151,SWHSYS1 SUPPLY INLET NODE,Water,2
 Node,152,SWHSYS1 PUMP-SWHSYS1 WATER HEATERNODEVIACONNECTOR,Water,1
 Node,153,SWHSYS1 SUPPLY MIXER-SWHSYS1 SUPPLY OUTLET PIPE,Water,1
 Node,154,SWHSYS1 SUPPLY OUTLET NODE,Water,4
 Node,155,BATH_ZN_1_FLR_1 AIR NODE,Air,0
 Node,156,BATH_ZN_1_FLR_1 RETURN AIR NODE NAME,Air,1
 Node,157,CAFETERIA_ZN_1_FLR_1 AIR NODE,Air,1
 Node,158,CAFETERIA_ZN_1_FLR_1 RETURN AIR NODE NAME,Air,1
 Node,159,COMPUTER_CLASS_ZN_1_FLR_1 AIR NODE,Air,0
 Node,160,COMPUTER_CLASS_ZN_1_FLR_1 RETURN AIR NODE NAME,Air,1
 Node,161,CORNER_CLASS_1_POD_1_ZN_1_FLR_1 AIR NODE,Air,0
 Node,162,CORNER_CLASS_1_POD_1_ZN_1_FLR_1 RETURN AIR NODE NAME,Air,1
 Node,163,CORNER_CLASS_1_POD_2_ZN_1_FLR_1 AIR NODE,Air,0
 Node,164,CORNER_CLASS_1_POD_2_ZN_1_FLR_1 RETURN AIR NODE NAME,Air,1
 Node,165,CORNER_CLASS_1_POD_3_ZN_1_FLR_1 AIR NODE,Air,0
 Node,166,CORNER_CLASS_1_POD_3_ZN_1_FLR_1 RETURN AIR NODE NAME,Air,1
 Node,167,CORNER_CLASS_2_POD_1_ZN_1_FLR_1 AIR NODE,Air,0
 Node,168,CORNER_CLASS_2_POD_1_ZN_1_FLR_1 RETURN AIR NODE NAME,Air,1
 Node,169,CORNER_CLASS_2_POD_2_ZN_1_FLR_1 AIR NODE,Air,0
 Node,170,CORNER_CLASS_2_POD_2_ZN_1_FLR_1 RETURN AIR NODE NAME,Air,1
 Node,171,CORNER_CLASS_2_POD_3_ZN_1_FLR_1 AIR NODE,Air,0
 Node,172,CORNER_CLASS_2_POD_3_ZN_1_FLR_1 RETURN AIR NODE NAME,Air,1
 Node,173,CORRIDOR_POD_1_ZN_1_FLR_1 AIR NODE,Air,0
 Node,174,CORRIDOR_POD_1_ZN_1_FLR_1 RETURN AIR NODE NAME,Air,1
 Node,175,CORRIDOR_POD_2_ZN_1_FLR_1 AIR NODE,Air,0
 Node,176,CORRIDOR_POD_2_ZN_1_FLR_1 RETURN AIR NODE NAME,Air,1
 Node,177,CORRIDOR_POD_3_ZN_1_FLR_1 AIR NODE,Air,0
 Node,178,CORRIDOR_POD_3_ZN_1_FLR_1 RETURN AIR NODE NAME,Air,1
 Node,179,GYM_ZN_1_FLR_1 AIR NODE,Air,1
 Node,180,GYM_ZN_1_FLR_1 RETURN AIR NODE NAME,Air,1
 Node,181,KITCHEN_ZN_1_FLR_1 AIR NODE,Air,1
 Node,182,KITCHEN_ZN_1_FLR_1 RETURN AIR NODE NAME,Air,1
 Node,183,LIBRARY_MEDIA_CENTER_ZN_1_FLR_1 AIR NODE,Air,0
 Node,184,LIBRARY_MEDIA_CENTER_ZN_1_FLR_1 RETURN AIR NODE NAME,Air,1
 Node,185,LOBBY_ZN_1_FLR_1 AIR NODE,Air,0
 Node,186,LOBBY_ZN_1_FLR_1 RETURN AIR NODE NAME,Air,1
 Node,187,MAIN_CORRIDOR_ZN_1_FLR_1 AIR NODE,Air,0
 Node,188,MAIN_CORRIDOR_ZN_1_FLR_1 RETURN AIR NODE NAME,Air,1
 Node,189,MECH_ZN_1_FLR_1 AIR NODE,Air,0
 Node,190,MECH_ZN_1_FLR_1 RETURN AIR NODE NAME,Air,1
 Node,191,MULT_CLASS_1_POD_1_ZN_1_FLR_1 AIR NODE,Air,0
 Node,192,MULT_CLASS_1_POD_1_ZN_1_FLR_1 RETURN AIR NODE NAME,Air,1
 Node,193,MULT_CLASS_1_POD_2_ZN_1_FLR_1 AIR NODE,Air,0
 Node,194,MULT_CLASS_1_POD_2_ZN_1_FLR_1 RETURN AIR NODE NAME,Air,1
 Node,195,MULT_CLASS_1_POD_3_ZN_1_FLR_1 AIR NODE,Air,0
 Node,196,MULT_CLASS_1_POD_3_ZN_1_FLR_1 RETURN AIR NODE NAME,Air,1
 Node,197,MULT_CLASS_2_POD_1_ZN_1_FLR_1 AIR NODE,Air,0
 Node,198,MULT_CLASS_2_POD_1_ZN_1_FLR_1 RETURN AIR NODE NAME,Air,1
 Node,199,MULT_CLASS_2_POD_2_ZN_1_FLR_1 AIR NODE,Air,0
 Node,200,MULT_CLASS_2_POD_2_ZN_1_FLR_1 RETURN AIR NODE NAME,Air,1
 Node,201,MULT_CLASS_2_POD_3_ZN_1_FLR_1 AIR NODE,Air,0
 Node,202,MULT_CLASS_2_POD_3_ZN_1_FLR_1 RETURN AIR NODE NAME,Air,1
 Node,203,OFFICES_ZN_1_FLR_1 AIR NODE,Air,0
 Node,204,OFFICES_ZN_1_FLR_1 RETURN AIR NODE NAME,Air,1
 Node,205,PSZ-AC_1:6 ZONE EQUIPMENT INLET NODE,Air,2
 Node,206,PSZ-AC_2:5 ZONE EQUIPMENT INLET NODE,Air,2
 Node,207,PSZ-AC_2:7 ZONE EQUIPMENT INLET NODE,Air,2
 Node,208,VAV_OTHER ZONE EQUIPMENT INLET NODE,Air,2
 Node,209,VAV_POD_1 ZONE EQUIPMENT INLET NODE,Air,2
 Node,210,VAV_POD_2 ZONE EQUIPMENT INLET NODE,Air,2
 Node,211,VAV_POD_3 ZONE EQUIPMENT INLET NODE,Air,2
 Node,212,PSZ-AC_1:6 ZONE EQUIPMENT OUTLET NODE,Air,2
 Node,213,PSZ-AC_2:5 ZONE EQUIPMENT OUTLET NODE,Air,2
 Node,214,PSZ-AC_2:7 ZONE EQUIPMENT OUTLET NODE,Air,2
 Node,215,VAV_OTHER ZONE EQUIPMENT OUTLET NODE,Air,2
 Node,216,VAV_POD_1 ZONE EQUIPMENT OUTLET NODE,Air,2
 Node,217,VAV_POD_2 ZONE EQUIPMENT OUTLET NODE,Air,2
 Node,218,VAV_POD_3 ZONE EQUIPMENT OUTLET NODE,Air,2
 Node,219,RACK1_CONDENSERINLET,Air,1
 Node,220,VAV_OTHER_COOLC COND OA NODE,Air,0
 Node,221,VAV_OTHER_COOLCOA REF NODE,Air,0
 Node,222,VAV_POD_1_COOLC COND OA NODE,Air,0
 Node,223,VAV_POD_1_COOLCOA REF NODE,Air,0
 Node,224,VAV_POD_2_COOLC COND OA NODE,Air,0
 Node,225,VAV_POD_2_COOLCOA REF NODE,Air,0
 Node,226,VAV_POD_3_COOLC COND OA NODE,Air,0
 Node,227,VAV_POD_3_COOLCOA REF NODE,Air,0
 Node,228,RACK2_CONDENSERINLET,Air,1
 Node,229,KITCHEN_ZN_1_FLR_1 DIRECT AIR INLET NODE NAME ATINLET,Air,1
 Node,230,GYM_ZN_1_FLR_1 DIRECT AIR INLET NODE NAME ATINLET,Air,1
 Node,231,CAFETERIA_ZN_1_FLR_1 DIRECT AIR INLET NODE NAME ATINLET,Air,1
 Node,232,COMPUTER_CLASS_ZN_1_FLR_1 VAV BOX INLET NODE NAME,Air,1
 Node,233,MAIN_CORRIDOR_ZN_1_FLR_1 VAV BOX INLET NODE NAME,Air,1
 Node,234,LOBBY_ZN_1_FLR_1 VAV BOX INLET NODE NAME,Air,1
 Node,235,MECH_ZN_1_FLR_1 VAV BOX INLET NODE NAME,Air,1
 Node,236,BATH_ZN_1_FLR_1 VAV BOX INLET NODE NAME,Air,1
 Node,237,OFFICES_ZN_1_FLR_1 VAV BOX INLET NODE NAME,Air,1
 Node,238,LIBRARY_MEDIA_CENTER_ZN_1_FLR_1 VAV BOX INLET NODE NAME,Air,1
 Node,239,CORNER_CLASS_1_POD_1_ZN_1_FLR_1 VAV BOX INLET NODE NAME,Air,1
 Node,240,MULT_CLASS_1_POD_1_ZN_1_FLR_1 VAV BOX INLET NODE NAME,Air,1
 Node,241,CORRIDOR_POD_1_ZN_1_FLR_1 VAV BOX INLET NODE NAME,Air,1
 Node,242,CORNER_CLASS_2_POD_1_ZN_1_FLR_1 VAV BOX INLET NODE NAME,Air,1
 Node,243,MULT_CLASS_2_POD_1_ZN_1_FLR_1 VAV BOX INLET NODE NAME,Air,1
 Node,244,CORNER_CLASS_1_POD_2_ZN_1_FLR_1 VAV BOX INLET NODE NAME,Air,1
 Node,245,MULT_CLASS_1_POD_2_ZN_1_FLR_1 VAV BOX INLET NODE NAME,Air,1
 Node,246,CORRIDOR_POD_2_ZN_1_FLR_1 VAV BOX INLET NODE NAME,Air,1
 Node,247,CORNER_CLASS_2_POD_2_ZN_1_FLR_1 VAV BOX INLET NODE NAME,Air,1
 Node,248,MULT_CLASS_2_POD_2_ZN_1_FLR_1 VAV BOX INLET NODE NAME,Air,1
 Node,249,CORNER_CLASS_1_POD_3_ZN_1_FLR_1 VAV BOX INLET NODE NAME,Air,1
 Node,250,MULT_CLASS_1_POD_3_ZN_1_FLR_1 VAV BOX INLET NODE NAME,Air,1
 Node,251,CORRIDOR_POD_3_ZN_1_FLR_1 VAV BOX INLET NODE NAME,Air,1
 Node,252,CORNER_CLASS_2_POD_3_ZN_1_FLR_1 VAV BOX INLET NODE NAME,Air,1
 Node,253,MULT_CLASS_2_POD_3_ZN_1_FLR_1 VAV BOX INLET NODE NAME,Air,1
 Node,254,BATH_ZN_1_FLR_1 EXHAUST FAN OUTLET NODE NAME,Air,0
 Node,255,CAFETERIA_ZN_1_FLR_1 EXHAUST FAN OUTLET NODE NAME,Air,0
 Node,256,KITCHEN_ZN_1_FLR_1 EXHAUST FAN OUTLET NODE NAME,Air,0
 Node,257,BATH_ZN_1_FLR_1 VAV BOX DAMPER NODE,Air,1
 Node,258,COMPUTER_CLASS_ZN_1_FLR_1 VAV BOX DAMPER NODE,Air,1
 Node,259,CORNER_CLASS_1_POD_1_ZN_1_FLR_1 VAV BOX DAMPER NODE,Air,1
 Node,260,CORNER_CLASS_1_POD_2_ZN_1_FLR_1 VAV BOX DAMPER NODE,Air,1
 Node,261,CORNER_CLASS_1_POD_3_ZN_1_FLR_1 VAV BOX DAMPER NODE,Air,1
 Node,262,CORNER_CLASS_2_POD_1_ZN_1_FLR_1 VAV BOX DAMPER NODE,Air,1
 Node,263,CORNER_CLASS_2_POD_2_ZN_1_FLR_1 VAV BOX DAMPER NODE,Air,1
 Node,264,CORNER_CLASS_2_POD_3_ZN_1_FLR_1 VAV BOX DAMPER NODE,Air,1
 Node,265,CORRIDOR_POD_1_ZN_1_FLR_1 VAV BOX DAMPER NODE,Air,1
 Node,266,CORRIDOR_POD_2_ZN_1_FLR_1 VAV BOX DAMPER NODE,Air,1
 Node,267,CORRIDOR_POD_3_ZN_1_FLR_1 VAV BOX DAMPER NODE,Air,1
 Node,268,LIBRARY_MEDIA_CENTER_ZN_1_FLR_1 VAV BOX DAMPER NODE,Air,1
 Node,269,LOBBY_ZN_1_FLR_1 VAV BOX DAMPER NODE,Air,1
 Node,270,MAIN_CORRIDOR_ZN_1_FLR_1 VAV BOX DAMPER NODE,Air,1
 Node,271,MECH_ZN_1_FLR_1 VAV BOX DAMPER NODE,Air,1
 Node,272,MULT_CLASS_1_POD_1_ZN_1_FLR_1 VAV BOX DAMPER NODE,Air,1
 Node,273,MULT_CLASS_1_POD_2_ZN_1_FLR_1 VAV BOX DAMPER NODE,Air,1
 Node,274,MULT_CLASS_1_POD_3_ZN_1_FLR_1 VAV BOX DAMPER NODE,Air,1
 Node,275,MULT_CLASS_2_POD_1_ZN_1_FLR_1 VAV BOX DAMPER NODE,Air,1
 Node,276,MULT_CLASS_2_POD_2_ZN_1_FLR_1 VAV BOX DAMPER NODE,Air,1
 Node,277,MULT_CLASS_2_POD_3_ZN_1_FLR_1 VAV BOX DAMPER NODE,Air,1
 Node,278,OFFICES_ZN_1_FLR_1 VAV BOX DAMPER NODE,Air,1
 Node,279,PSZ-AC_1:6_OARELIEF NODE,Air,1
 Node,280,PSZ-AC_2:5_OARELIEF NODE,Air,1
 Node,281,PSZ-AC_2:7_OARELIEF NODE,Air,1
 Node,282,VAV_OTHER_OARELIEF NODE,Air,1
 Node,283,VAV_POD_1_OARELIEF NODE,Air,1
 Node,284,VAV_POD_2_OARELIEF NODE,Air,1
 Node,285,VAV_POD_3_OARELIEF NODE,Air,1
! ===============================================================
! Suspicious nodes have 0 references.  It is normal for some nodes, however.
! Listing nodes with 0 references (culled from previous list):
! <Suspicious Node>,<NodeNumber>,<Node Name>,<Node Fluid Type>,<# Times Node Referenced After Definition>
 Suspicious Node,155,BATH_ZN_1_FLR_1 AIR NODE,Air,0
 Suspicious Node,159,COMPUTER_CLASS_ZN_1_FLR_1 AIR NODE,Air,0
 Suspicious Node,161,CORNER_CLASS_1_POD_1_ZN_1_FLR_1 AIR NODE,Air,0
 Suspicious Node,163,CORNER_CLASS_1_POD_2_ZN_1_FLR_1 AIR NODE,Air,0
 Suspicious Node,165,CORNER_CLASS_1_POD_3_ZN_1_FLR_1 AIR NODE,Air,0
 Suspicious Node,167,CORNER_CLASS_2_POD_1_ZN_1_FLR_1 AIR NODE,Air,0
 Suspicious Node,169,CORNER_CLASS_2_POD_2_ZN_1_FLR_1 AIR NODE,Air,0
 Suspicious Node,171,CORNER_CLASS_2_POD_3_ZN_1_FLR_1 AIR NODE,Air,0
 Suspicious Node,173,CORRIDOR_POD_1_ZN_1_FLR_1 AIR NODE,Air,0
 Suspicious Node,175,CORRIDOR_POD_2_ZN_1_FLR_1 AIR NODE,Air,0
 Suspicious Node,177,CORRIDOR_POD_3_ZN_1_FLR_1 AIR NODE,Air,0
 Suspicious Node,183,LIBRARY_MEDIA_CENTER_ZN_1_FLR_1 AIR NODE,Air,0
 Suspicious Node,185,LOBBY_ZN_1_FLR_1 AIR NODE,Air,0
 Suspicious Node,187,MAIN_CORRIDOR_ZN_1_FLR_1 AIR NODE,Air,0
 Suspicious Node,189,MECH_ZN_1_FLR_1 AIR NODE,Air,0
 Suspicious Node,191,MULT_CLASS_1_POD_1_ZN_1_FLR_1 AIR NODE,Air,0
 Suspicious Node,193,MULT_CLASS_1_POD_2_ZN_1_FLR_1 AIR NODE,Air,0
 Suspicious Node,195,MULT_CLASS_1_POD_3_ZN_1_FLR_1 AIR NODE,Air,0
 Suspicious Node,197,MULT_CLASS_2_POD_1_ZN_1_FLR_1 AIR NODE,Air,0
 Suspicious Node,199,MULT_CLASS_2_POD_2_ZN_1_FLR_1 AIR NODE,Air,0
 Suspicious Node,201,MULT_CLASS_2_POD_3_ZN_1_FLR_1 AIR NODE,Air,0
 Suspicious Node,203,OFFICES_ZN_1_FLR_1 AIR NODE,Air,0
 Suspicious Node,220,VAV_OTHER_COOLC COND OA NODE,Air,0
 Suspicious Node,221,VAV_OTHER_COOLCOA REF NODE,Air,0
 Suspicious Node,222,VAV_POD_1_COOLC COND OA NODE,Air,0
 Suspicious Node,223,VAV_POD_1_COOLCOA REF NODE,Air,0
 Suspicious Node,224,VAV_POD_2_COOLC COND OA NODE,Air,0
 Suspicious Node,225,VAV_POD_2_COOLCOA REF NODE,Air,0
 Suspicious Node,226,VAV_POD_3_COOLC COND OA NODE,Air,0
 Suspicious Node,227,VAV_POD_3_COOLCOA REF NODE,Air,0
 Suspicious Node,254,BATH_ZN_1_FLR_1 EXHAUST FAN OUTLET NODE NAME,Air,0
 Suspicious Node,255,CAFETERIA_ZN_1_FLR_1 EXHAUST FAN OUTLET NODE NAME,Air,0
 Suspicious Node,256,KITCHEN_ZN_1_FLR_1 EXHAUST FAN OUTLET NODE NAME,Air,0
! ===============================================================
! <#Branch Lists>,<Number of Branch Lists>
 #Branch Lists,11
! <Branch List>,<Branch List Count>,<Branch List Name>,<Loop Name>,<Loop Type>,<Number of Branches>
! <Branch>,<Branch Count>,<Branch Name>,<Loop Name>,<Loop Type>,<Branch Inlet Node Name>,<Branch Outlet Node Name>
 Branch List,1,PSZ-AC_1:6 AIR LOOP BRANCHES,PSZ-AC_1:6,Air,1
   Branch,1,PSZ-AC_1:6 AIR LOOP MAIN BRANCH,PSZ-AC_1:6,Air,PSZ-AC_1:6 SUPPLY EQUIPMENT INLET NODE,PSZ-AC_1:6 SUPPLY EQUIPMENT OUTLET NODE
 Branch List,2,PSZ-AC_2:5 AIR LOOP BRANCHES,PSZ-AC_2:5,Air,1
   Branch,1,PSZ-AC_2:5 AIR LOOP MAIN BRANCH,PSZ-AC_2:5,Air,PSZ-AC_2:5 SUPPLY EQUIPMENT INLET NODE,PSZ-AC_2:5 SUPPLY EQUIPMENT OUTLET NODE
 Branch List,3,PSZ-AC_2:7 AIR LOOP BRANCHES,PSZ-AC_2:7,Air,1
   Branch,1,PSZ-AC_2:7 AIR LOOP MAIN BRANCH,PSZ-AC_2:7,Air,PSZ-AC_2:7 SUPPLY EQUIPMENT INLET NODE,PSZ-AC_2:7 SUPPLY EQUIPMENT OUTLET NODE
 Branch List,4,VAV_OTHER AIR LOOP BRANCHES,VAV_OTHER,Air,1
   Branch,1,VAV_OTHER AIR LOOP MAIN BRANCH,VAV_OTHER,Air,VAV_OTHER SUPPLY EQUIPMENT INLET NODE,VAV_OTHER SUPPLY EQUIPMENT OUTLET NODE
 Branch List,5,VAV_POD_1 AIR LOOP BRANCHES,VAV_POD_1,Air,1
   Branch,1,VAV_POD_1 AIR LOOP MAIN BRANCH,VAV_POD_1,Air,VAV_POD_1 SUPPLY EQUIPMENT INLET NODE,VAV_POD_1 SUPPLY EQUIPMENT OUTLET NODE
 Branch List,6,VAV_POD_2 AIR LOOP BRANCHES,VAV_POD_2,Air,1
   Branch,1,VAV_POD_2 AIR LOOP MAIN BRANCH,VAV_POD_2,Air,VAV_POD_2 SUPPLY EQUIPMENT INLET NODE,VAV_POD_2 SUPPLY EQUIPMENT OUTLET NODE
 Branch List,7,VAV_POD_3 AIR LOOP BRANCHES,VAV_POD_3,Air,1
   Branch,1,VAV_POD_3 AIR LOOP MAIN BRANCH,VAV_POD_3,Air,VAV_POD_3 SUPPLY EQUIPMENT INLET NODE,VAV_POD_3 SUPPLY EQUIPMENT OUTLET NODE
 Branch List,8,HEATSYS1 DEMAND BRANCHES,HEATSYS1,Plant Demand,29
   Branch,1,HEATSYS1 DEMAND INLET BRANCH,HEATSYS1,Plant Demand,HEATSYS1 DEMAND INLET NODE,HEATSYS1 DEMAND INLET PIPE-HEATSYS1 DEMAND MIXER
   Branch,2,HEATSYS1 DEMAND LOAD BRANCH 1,HEATSYS1,Plant Demand,CORNER_CLASS_1_POD_1_ZN_1_FLR_1 VAV BOX REHEAT COILDEMAND INLET NODE,CORNER_CLASS_1_POD_1_ZN_1_FLR_1 VAV BOX REHEAT COILDEMAND OUTLET NODE
   Branch,3,HEATSYS1 DEMAND LOAD BRANCH 2,HEATSYS1,Plant Demand,MULT_CLASS_1_POD_1_ZN_1_FLR_1 VAV BOX REHEAT COILDEMAND INLET NODE,MULT_CLASS_1_POD_1_ZN_1_FLR_1 VAV BOX REHEAT COILDEMAND OUTLET NODE
   Branch,4,HEATSYS1 DEMAND LOAD BRANCH 3,HEATSYS1,Plant Demand,CORRIDOR_POD_1_ZN_1_FLR_1 VAV BOX REHEAT COILDEMAND INLET NODE,CORRIDOR_POD_1_ZN_1_FLR_1 VAV BOX REHEAT COILDEMAND OUTLET NODE
   Branch,5,HEATSYS1 DEMAND LOAD BRANCH 4,HEATSYS1,Plant Demand,CORNER_CLASS_2_POD_1_ZN_1_FLR_1 VAV BOX REHEAT COILDEMAND INLET NODE,CORNER_CLASS_2_POD_1_ZN_1_FLR_1 VAV BOX REHEAT COILDEMAND OUTLET NODE
   Branch,6,HEATSYS1 DEMAND LOAD BRANCH 5,HEATSYS1,Plant Demand,MULT_CLASS_2_POD_1_ZN_1_FLR_1 VAV BOX REHEAT COILDEMAND INLET NODE,MULT_CLASS_2_POD_1_ZN_1_FLR_1 VAV BOX REHEAT COILDEMAND OUTLET NODE
   Branch,7,HEATSYS1 DEMAND LOAD BRANCH 6,HEATSYS1,Plant Demand,CORNER_CLASS_1_POD_2_ZN_1_FLR_1 VAV BOX REHEAT COILDEMAND INLET NODE,CORNER_CLASS_1_POD_2_ZN_1_FLR_1 VAV BOX REHEAT COILDEMAND OUTLET NODE
   Branch,8,HEATSYS1 DEMAND LOAD BRANCH 7,HEATSYS1,Plant Demand,MULT_CLASS_1_POD_2_ZN_1_FLR_1 VAV BOX REHEAT COILDEMAND INLET NODE,MULT_CLASS_1_POD_2_ZN_1_FLR_1 VAV BOX REHEAT COILDEMAND OUTLET NODE
   Branch,9,HEATSYS1 DEMAND LOAD BRANCH 8,HEATSYS1,Plant Demand,CORRIDOR_POD_2_ZN_1_FLR_1 VAV BOX REHEAT COILDEMAND INLET NODE,CORRIDOR_POD_2_ZN_1_FLR_1 VAV BOX REHEAT COILDEMAND OUTLET NODE
   Branch,10,HEATSYS1 DEMAND LOAD BRANCH 9,HEATSYS1,Plant Demand,CORNER_CLASS_2_POD_2_ZN_1_FLR_1 VAV BOX REHEAT COILDEMAND INLET NODE,CORNER_CLASS_2_POD_2_ZN_1_FLR_1 VAV BOX REHEAT COILDEMAND OUTLET NODE
   Branch,11,HEATSYS1 DEMAND LOAD BRANCH 10,HEATSYS1,Plant Demand,MULT_CLASS_2_POD_2_ZN_1_FLR_1 VAV BOX REHEAT COILDEMAND INLET NODE,MULT_CLASS_2_POD_2_ZN_1_FLR_1 VAV BOX REHEAT COILDEMAND OUTLET NODE
   Branch,12,HEATSYS1 DEMAND LOAD BRANCH 11,HEATSYS1,Plant Demand,CORNER_CLASS_1_POD_3_ZN_1_FLR_1 VAV BOX REHEAT COILDEMAND INLET NODE,CORNER_CLASS_1_POD_3_ZN_1_FLR_1 VAV BOX REHEAT COILDEMAND OUTLET NODE
   Branch,13,HEATSYS1 DEMAND LOAD BRANCH 12,HEATSYS1,Plant Demand,MULT_CLASS_1_POD_3_ZN_1_FLR_1 VAV BOX REHEAT COILDEMAND INLET NODE,MULT_CLASS_1_POD_3_ZN_1_FLR_1 VAV BOX REHEAT COILDEMAND OUTLET NODE
   Branch,14,HEATSYS1 DEMAND LOAD BRANCH 13,HEATSYS1,Plant Demand,CORRIDOR_POD_3_ZN_1_FLR_1 VAV BOX REHEAT COILDEMAND INLET NODE,CORRIDOR_POD_3_ZN_1_FLR_1 VAV BOX REHEAT COILDEMAND OUTLET NODE
   Branch,15,HEATSYS1 DEMAND LOAD BRANCH 14,HEATSYS1,Plant Demand,CORNER_CLASS_2_POD_3_ZN_1_FLR_1 VAV BOX REHEAT COILDEMAND INLET NODE,CORNER_CLASS_2_POD_3_ZN_1_FLR_1 VAV BOX REHEAT COILDEMAND OUTLET NODE
   Branch,16,HEATSYS1 DEMAND LOAD BRANCH 15,HEATSYS1,Plant Demand,MULT_CLASS_2_POD_3_ZN_1_FLR_1 VAV BOX REHEAT COILDEMAND INLET NODE,MULT_CLASS_2_POD_3_ZN_1_FLR_1 VAV BOX REHEAT COILDEMAND OUTLET NODE
   Branch,17,HEATSYS1 DEMAND LOAD BRANCH 16,HEATSYS1,Plant Demand,COMPUTER_CLASS_ZN_1_FLR_1 VAV BOX REHEAT COILDEMAND INLET NODE,COMPUTER_CLASS_ZN_1_FLR_1 VAV BOX REHEAT COILDEMAND OUTLET NODE
   Branch,18,HEATSYS1 DEMAND LOAD BRANCH 17,HEATSYS1,Plant Demand,MAIN_CORRIDOR_ZN_1_FLR_1 VAV BOX REHEAT COILDEMAND INLET NODE,MAIN_CORRIDOR_ZN_1_FLR_1 VAV BOX REHEAT COILDEMAND OUTLET NODE
   Branch,19,HEATSYS1 DEMAND LOAD BRANCH 18,HEATSYS1,Plant Demand,LOBBY_ZN_1_FLR_1 VAV BOX REHEAT COILDEMAND INLET NODE,LOBBY_ZN_1_FLR_1 VAV BOX REHEAT COILDEMAND OUTLET NODE
   Branch,20,HEATSYS1 DEMAND LOAD BRANCH 19,HEATSYS1,Plant Demand,MECH_ZN_1_FLR_1 VAV BOX REHEAT COILDEMAND INLET NODE,MECH_ZN_1_FLR_1 VAV BOX REHEAT COILDEMAND OUTLET NODE
   Branch,21,HEATSYS1 DEMAND LOAD BRANCH 20,HEATSYS1,Plant Demand,BATH_ZN_1_FLR_1 VAV BOX REHEAT COILDEMAND INLET NODE,BATH_ZN_1_FLR_1 VAV BOX REHEAT COILDEMAND OUTLET NODE
   Branch,22,HEATSYS1 DEMAND LOAD BRANCH 21,HEATSYS1,Plant Demand,OFFICES_ZN_1_FLR_1 VAV BOX REHEAT COILDEMAND INLET NODE,OFFICES_ZN_1_FLR_1 VAV BOX REHEAT COILDEMAND OUTLET NODE
   Branch,23,HEATSYS1 DEMAND LOAD BRANCH 22,HEATSYS1,Plant Demand,LIBRARY_MEDIA_CENTER_ZN_1_FLR_1 VAV BOX REHEAT COILDEMAND INLET NODE,LIBRARY_MEDIA_CENTER_ZN_1_FLR_1 VAV BOX REHEAT COILDEMAND OUTLET NODE
   Branch,24,HEATSYS1 DEMAND LOAD BRANCH 23,HEATSYS1,Plant Demand,VAV_POD_1_HEATCDEMAND INLET NODE,VAV_POD_1_HEATCDEMAND OUTLET NODE
   Branch,25,HEATSYS1 DEMAND LOAD BRANCH 24,HEATSYS1,Plant Demand,VAV_POD_2_HEATCDEMAND INLET NODE,VAV_POD_2_HEATCDEMAND OUTLET NODE
   Branch,26,HEATSYS1 DEMAND LOAD BRANCH 25,HEATSYS1,Plant Demand,VAV_POD_3_HEATCDEMAND INLET NODE,VAV_POD_3_HEATCDEMAND OUTLET NODE
   Branch,27,HEATSYS1 DEMAND LOAD BRANCH 26,HEATSYS1,Plant Demand,VAV_OTHER_HEATCDEMAND INLET NODE,VAV_OTHER_HEATCDEMAND OUTLET NODE
   Branch,28,HEATSYS1 DEMAND BYPASS BRANCH,HEATSYS1,Plant Demand,HEATSYS1 DEMAND BYPASS PIPE INLET NODE,HEATSYS1 DEMAND BYPASS PIPE OUTLET NODE
   Branch,29,HEATSYS1 DEMAND OUTLET BRANCH,HEATSYS1,Plant Demand,HEATSYS1 DEMAND MIXER-HEATSYS1 DEMAND OUTLET PIPE,HEATSYS1 DEMAND OUTLET NODE
 Branch List,9,HEATSYS1 SUPPLY BRANCHES,HEATSYS1,Plant Supply,4
   Branch,1,HEATSYS1 SUPPLY INLET BRANCH,HEATSYS1,Plant Supply,HEATSYS1 SUPPLY INLET NODE,HEATSYS1 PUMP-HEATSYS1 BOILERNODEVIACONNECTOR
   Branch,2,HEATSYS1 SUPPLY EQUIPMENT BRANCH,HEATSYS1,Plant Supply,HEATSYS1 PUMP-HEATSYS1 BOILERNODE,HEATSYS1 SUPPLY EQUIPMENT OUTLET NODE
   Branch,3,HEATSYS1 SUPPLY EQUIPMENT BYPASS BRANCH,HEATSYS1,Plant Supply,HEATSYS1 SUPPLY EQUIP BYPASS INLET NODE,HEATSYS1 SUPPLY EQUIP BYPASS OUTLET NODE
   Branch,4,HEATSYS1 SUPPLY OUTLET BRANCH,HEATSYS1,Plant Supply,HEATSYS1 SUPPLY MIXER-HEATSYS1 SUPPLY OUTLET PIPE,HEATSYS1 SUPPLY OUTLET NODE
 Branch List,10,SWHSYS1 DEMAND BRANCHES,SWHSYS1,Plant Demand,5
   Branch,1,SWHSYS1 DEMAND INLET BRANCH,SWHSYS1,Plant Demand,SWHSYS1 DEMAND INLET NODE,SWHSYS1 DEMAND INLET PIPE-SWHSYS1 DEMAND MIXER
   Branch,2,SWHSYS1 DEMAND LOAD BRANCH 1,SWHSYS1,Plant Demand,BATH_ZN_1_FLR_1 SHW_DEFAULT WATER INLET NODE,BATH_ZN_1_FLR_1 SHW_DEFAULT WATER OUTLET NODE
   Branch,3,SWHSYS1 DEMAND LOAD BRANCH 2,SWHSYS1,Plant Demand,KITCHEN_ZN_1_FLR_1 SHW_DEFAULT WATER INLET NODE,KITCHEN_ZN_1_FLR_1 SHW_DEFAULT WATER OUTLET NODE
   Branch,4,SWHSYS1 DEMAND BYPASS BRANCH,SWHSYS1,Plant Demand,SWHSYS1 DEMAND BYPASS PIPE INLET NODE,SWHSYS1 DEMAND BYPASS PIPE OUTLET NODE
   Branch,5,SWHSYS1 DEMAND OUTLET BRANCH,SWHSYS1,Plant Demand,SWHSYS1 DEMAND MIXER-SWHSYS1 DEMAND OUTLET PIPE,SWHSYS1 DEMAND OUTLET NODE
 Branch List,11,SWHSYS1 SUPPLY BRANCHES,SWHSYS1,Plant Supply,4
   Branch,1,SWHSYS1 SUPPLY INLET BRANCH,SWHSYS1,Plant Supply,SWHSYS1 SUPPLY INLET NODE,SWHSYS1 PUMP-SWHSYS1 WATER HEATERNODEVIACONNECTOR
   Branch,2,SWHSYS1 SUPPLY EQUIPMENT BRANCH,SWHSYS1,Plant Supply,SWHSYS1 PUMP-SWHSYS1 WATER HEATERNODE,SWHSYS1 SUPPLY EQUIPMENT OUTLET NODE
   Branch,3,SWHSYS1 SUPPLY EQUIPMENT BYPASS BRANCH,SWHSYS1,Plant Supply,SWHSYS1 SUPPLY EQUIP BYPASS INLET NODE,SWHSYS1 SUPPLY EQUIP BYPASS OUTLET NODE
   Branch,4,SWHSYS1 SUPPLY OUTLET BRANCH,SWHSYS1,Plant Supply,SWHSYS1 SUPPLY MIXER-SWHSYS1 SUPPLY OUTLET PIPE,SWHSYS1 SUPPLY OUTLET NODE
! ===============================================================
! <#Supply Air Paths>,<Number of Supply Air Paths>
 #Supply Air Paths,7
! <Supply Air Path>,<Supply Air Path Count>,<Supply Air Path Name>,<AirLoopHVAC Name>
! <#Components on Supply Air Path>,<Number of Components>
! <Supply Air Path Component>,<Component Count>,<Component Type>,<Component Name>,<AirLoopHVAC Name>
! <#Outlet Nodes on Supply Air Path Component>,<Number of Nodes>
! <Supply Air Path Component Nodes>,<Node Count>,<Component Type>,<Component Name>,<Inlet Node Name>,<Outlet Node Name>,<AirLoopHVAC Name>
 Supply Air Path,1,PSZ-AC_1:6,PSZ-AC_1:6
   #Components on Supply Air Path,1
   Supply Air Path Component,1,AIRLOOPHVAC:ZONESPLITTER,PSZ-AC_1:6 SUPPLY AIR SPLITTER,PSZ-AC_1:6
     #Outlet Nodes on Supply Air Path Component,1
     Supply Air Path Component Nodes,1,AIRLOOPHVAC:ZONESPLITTER,PSZ-AC_1:6 SUPPLY AIR SPLITTER,PSZ-AC_1:6 ZONE EQUIPMENT INLET NODE,KITCHEN_ZN_1_FLR_1 DIRECT AIR INLET NODE NAME ATINLET,PSZ-AC_1:6
! <#Nodes on Supply Air Path>,<Number of Nodes>
! <Supply Air Path Node>,<Node Type>,<Node Count>,<Node Name>,<AirLoopHVAC Name>
#Nodes on Supply Air Path,2
   Supply Air Path Node,Inlet Node,1,PSZ-AC_1:6 ZONE EQUIPMENT INLET NODE,PSZ-AC_1:6
   Supply Air Path Node,Outlet Node,2,KITCHEN_ZN_1_FLR_1 DIRECT AIR INLET NODE NAME ATINLET,PSZ-AC_1:6
 Supply Air Path,2,PSZ-AC_2:5,PSZ-AC_2:5
   #Components on Supply Air Path,1
   Supply Air Path Component,1,AIRLOOPHVAC:ZONESPLITTER,PSZ-AC_2:5 SUPPLY AIR SPLITTER,PSZ-AC_2:5
     #Outlet Nodes on Supply Air Path Component,1
     Supply Air Path Component Nodes,1,AIRLOOPHVAC:ZONESPLITTER,PSZ-AC_2:5 SUPPLY AIR SPLITTER,PSZ-AC_2:5 ZONE EQUIPMENT INLET NODE,GYM_ZN_1_FLR_1 DIRECT AIR INLET NODE NAME ATINLET,PSZ-AC_2:5
! <#Nodes on Supply Air Path>,<Number of Nodes>
! <Supply Air Path Node>,<Node Type>,<Node Count>,<Node Name>,<AirLoopHVAC Name>
#Nodes on Supply Air Path,2
   Supply Air Path Node,Inlet Node,1,PSZ-AC_2:5 ZONE EQUIPMENT INLET NODE,PSZ-AC_2:5
   Supply Air Path Node,Outlet Node,2,GYM_ZN_1_FLR_1 DIRECT AIR INLET NODE NAME ATINLET,PSZ-AC_2:5
 Supply Air Path,3,PSZ-AC_2:7,PSZ-AC_2:7
   #Components on Supply Air Path,1
   Supply Air Path Component,1,AIRLOOPHVAC:ZONESPLITTER,PSZ-AC_2:7 SUPPLY AIR SPLITTER,PSZ-AC_2:7
     #Outlet Nodes on Supply Air Path Component,1
     Supply Air Path Component Nodes,1,AIRLOOPHVAC:ZONESPLITTER,PSZ-AC_2:7 SUPPLY AIR SPLITTER,PSZ-AC_2:7 ZONE EQUIPMENT INLET NODE,CAFETERIA_ZN_1_FLR_1 DIRECT AIR INLET NODE NAME ATINLET,PSZ-AC_2:7
! <#Nodes on Supply Air Path>,<Number of Nodes>
! <Supply Air Path Node>,<Node Type>,<Node Count>,<Node Name>,<AirLoopHVAC Name>
#Nodes on Supply Air Path,2
   Supply Air Path Node,Inlet Node,1,PSZ-AC_2:7 ZONE EQUIPMENT INLET NODE,PSZ-AC_2:7
   Supply Air Path Node,Outlet Node,2,CAFETERIA_ZN_1_FLR_1 DIRECT AIR INLET NODE NAME ATINLET,PSZ-AC_2:7
 Supply Air Path,4,VAV_OTHER,VAV_OTHER
   #Components on Supply Air Path,1
   Supply Air Path Component,1,AIRLOOPHVAC:ZONESPLITTER,VAV_OTHER SUPPLY AIR SPLITTER,VAV_OTHER
     #Outlet Nodes on Supply Air Path Component,7
     Supply Air Path Component Nodes,1,AIRLOOPHVAC:ZONESPLITTER,VAV_OTHER SUPPLY AIR SPLITTER,VAV_OTHER ZONE EQUIPMENT INLET NODE,COMPUTER_CLASS_ZN_1_FLR_1 VAV BOX INLET NODE NAME,VAV_OTHER
     Supply Air Path Component Nodes,2,AIRLOOPHVAC:ZONESPLITTER,VAV_OTHER SUPPLY AIR SPLITTER,VAV_OTHER ZONE EQUIPMENT INLET NODE,MAIN_CORRIDOR_ZN_1_FLR_1 VAV BOX INLET NODE NAME,VAV_OTHER
     Supply Air Path Component Nodes,3,AIRLOOPHVAC:ZONESPLITTER,VAV_OTHER SUPPLY AIR SPLITTER,VAV_OTHER ZONE EQUIPMENT INLET NODE,LOBBY_ZN_1_FLR_1 VAV BOX INLET NODE NAME,VAV_OTHER
     Supply Air Path Component Nodes,4,AIRLOOPHVAC:ZONESPLITTER,VAV_OTHER SUPPLY AIR SPLITTER,VAV_OTHER ZONE EQUIPMENT INLET NODE,MECH_ZN_1_FLR_1 VAV BOX INLET NODE NAME,VAV_OTHER
     Supply Air Path Component Nodes,5,AIRLOOPHVAC:ZONESPLITTER,VAV_OTHER SUPPLY AIR SPLITTER,VAV_OTHER ZONE EQUIPMENT INLET NODE,BATH_ZN_1_FLR_1 VAV BOX INLET NODE NAME,VAV_OTHER
     Supply Air Path Component Nodes,6,AIRLOOPHVAC:ZONESPLITTER,VAV_OTHER SUPPLY AIR SPLITTER,VAV_OTHER ZONE EQUIPMENT INLET NODE,OFFICES_ZN_1_FLR_1 VAV BOX INLET NODE NAME,VAV_OTHER
     Supply Air Path Component Nodes,7,AIRLOOPHVAC:ZONESPLITTER,VAV_OTHER SUPPLY AIR SPLITTER,VAV_OTHER ZONE EQUIPMENT INLET NODE,LIBRARY_MEDIA_CENTER_ZN_1_FLR_1 VAV BOX INLET NODE NAME,VAV_OTHER
! <#Nodes on Supply Air Path>,<Number of Nodes>
! <Supply Air Path Node>,<Node Type>,<Node Count>,<Node Name>,<AirLoopHVAC Name>
#Nodes on Supply Air Path,8
   Supply Air Path Node,Inlet Node,1,VAV_OTHER ZONE EQUIPMENT INLET NODE,VAV_OTHER
   Supply Air Path Node,Outlet Node,2,COMPUTER_CLASS_ZN_1_FLR_1 VAV BOX INLET NODE NAME,VAV_OTHER
   Supply Air Path Node,Outlet Node,3,MAIN_CORRIDOR_ZN_1_FLR_1 VAV BOX INLET NODE NAME,VAV_OTHER
   Supply Air Path Node,Outlet Node,4,LOBBY_ZN_1_FLR_1 VAV BOX INLET NODE NAME,VAV_OTHER
   Supply Air Path Node,Outlet Node,5,MECH_ZN_1_FLR_1 VAV BOX INLET NODE NAME,VAV_OTHER
   Supply Air Path Node,Outlet Node,6,BATH_ZN_1_FLR_1 VAV BOX INLET NODE NAME,VAV_OTHER
   Supply Air Path Node,Outlet Node,7,OFFICES_ZN_1_FLR_1 VAV BOX INLET NODE NAME,VAV_OTHER
   Supply Air Path Node,Outlet Node,8,LIBRARY_MEDIA_CENTER_ZN_1_FLR_1 VAV BOX INLET NODE NAME,VAV_OTHER
 Supply Air Path,5,VAV_POD_1,VAV_POD_1
   #Components on Supply Air Path,1
   Supply Air Path Component,1,AIRLOOPHVAC:ZONESPLITTER,VAV_POD_1 SUPPLY AIR SPLITTER,VAV_POD_1
     #Outlet Nodes on Supply Air Path Component,6
     Supply Air Path Component Nodes,1,AIRLOOPHVAC:ZONESPLITTER,VAV_POD_1 SUPPLY AIR SPLITTER,VAV_POD_1 ZONE EQUIPMENT INLET NODE,CORNER_CLASS_1_POD_1_ZN_1_FLR_1 VAV BOX INLET NODE NAME,VAV_POD_1
     Supply Air Path Component Nodes,2,AIRLOOPHVAC:ZONESPLITTER,VAV_POD_1 SUPPLY AIR SPLITTER,VAV_POD_1 ZONE EQUIPMENT INLET NODE,MULT_CLASS_1_POD_1_ZN_1_FLR_1 VAV BOX INLET NODE NAME,VAV_POD_1
     Supply Air Path Component Nodes,3,AIRLOOPHVAC:ZONESPLITTER,VAV_POD_1 SUPPLY AIR SPLITTER,VAV_POD_1 ZONE EQUIPMENT INLET NODE,CORRIDOR_POD_1_ZN_1_FLR_1 VAV BOX INLET NODE NAME,VAV_POD_1
     Supply Air Path Component Nodes,4,AIRLOOPHVAC:ZONESPLITTER,VAV_POD_1 SUPPLY AIR SPLITTER,VAV_POD_1 ZONE EQUIPMENT INLET NODE,CORNER_CLASS_2_POD_1_ZN_1_FLR_1 VAV BOX INLET NODE NAME,VAV_POD_1
     Supply Air Path Component Nodes,5,AIRLOOPHVAC:ZONESPLITTER,VAV_POD_1 SUPPLY AIR SPLITTER,VAV_POD_1 ZONE EQUIPMENT INLET NODE,MULT_CLASS_2_POD_1_ZN_1_FLR_1 VAV BOX INLET NODE NAME,VAV_POD_1
     Supply Air Path Component Nodes,6,AIRLOOPHVAC:ZONESPLITTER,VAV_POD_1 SUPPLY AIR SPLITTER,VAV_POD_1 ZONE EQUIPMENT INLET NODE,CORNER_CLASS_1_POD_2_ZN_1_FLR_1 VAV BOX INLET NODE NAME,VAV_POD_1
! <#Nodes on Supply Air Path>,<Number of Nodes>
! <Supply Air Path Node>,<Node Type>,<Node Count>,<Node Name>,<AirLoopHVAC Name>
#Nodes on Supply Air Path,7
   Supply Air Path Node,Inlet Node,1,VAV_POD_1 ZONE EQUIPMENT INLET NODE,VAV_POD_1
   Supply Air Path Node,Outlet Node,2,CORNER_CLASS_1_POD_1_ZN_1_FLR_1 VAV BOX INLET NODE NAME,VAV_POD_1
   Supply Air Path Node,Outlet Node,3,MULT_CLASS_1_POD_1_ZN_1_FLR_1 VAV BOX INLET NODE NAME,VAV_POD_1
   Supply Air Path Node,Outlet Node,4,CORRIDOR_POD_1_ZN_1_FLR_1 VAV BOX INLET NODE NAME,VAV_POD_1
   Supply Air Path Node,Outlet Node,5,CORNER_CLASS_2_POD_1_ZN_1_FLR_1 VAV BOX INLET NODE NAME,VAV_POD_1
   Supply Air Path Node,Outlet Node,6,MULT_CLASS_2_POD_1_ZN_1_FLR_1 VAV BOX INLET NODE NAME,VAV_POD_1
   Supply Air Path Node,Outlet Node,7,CORNER_CLASS_1_POD_2_ZN_1_FLR_1 VAV BOX INLET NODE NAME,VAV_POD_1
 Supply Air Path,6,VAV_POD_2,VAV_POD_2
   #Components on Supply Air Path,1
   Supply Air Path Component,1,AIRLOOPHVAC:ZONESPLITTER,VAV_POD_2 SUPPLY AIR SPLITTER,VAV_POD_2
     #Outlet Nodes on Supply Air Path Component,4
     Supply Air Path Component Nodes,1,AIRLOOPHVAC:ZONESPLITTER,VAV_POD_2 SUPPLY AIR SPLITTER,VAV_POD_2 ZONE EQUIPMENT INLET NODE,MULT_CLASS_1_POD_2_ZN_1_FLR_1 VAV BOX INLET NODE NAME,VAV_POD_2
     Supply Air Path Component Nodes,2,AIRLOOPHVAC:ZONESPLITTER,VAV_POD_2 SUPPLY AIR SPLITTER,VAV_POD_2 ZONE EQUIPMENT INLET NODE,CORRIDOR_POD_2_ZN_1_FLR_1 VAV BOX INLET NODE NAME,VAV_POD_2
     Supply Air Path Component Nodes,3,AIRLOOPHVAC:ZONESPLITTER,VAV_POD_2 SUPPLY AIR SPLITTER,VAV_POD_2 ZONE EQUIPMENT INLET NODE,CORNER_CLASS_2_POD_2_ZN_1_FLR_1 VAV BOX INLET NODE NAME,VAV_POD_2
     Supply Air Path Component Nodes,4,AIRLOOPHVAC:ZONESPLITTER,VAV_POD_2 SUPPLY AIR SPLITTER,VAV_POD_2 ZONE EQUIPMENT INLET NODE,MULT_CLASS_2_POD_2_ZN_1_FLR_1 VAV BOX INLET NODE NAME,VAV_POD_2
! <#Nodes on Supply Air Path>,<Number of Nodes>
! <Supply Air Path Node>,<Node Type>,<Node Count>,<Node Name>,<AirLoopHVAC Name>
#Nodes on Supply Air Path,5
   Supply Air Path Node,Inlet Node,1,VAV_POD_2 ZONE EQUIPMENT INLET NODE,VAV_POD_2
   Supply Air Path Node,Outlet Node,2,MULT_CLASS_1_POD_2_ZN_1_FLR_1 VAV BOX INLET NODE NAME,VAV_POD_2
   Supply Air Path Node,Outlet Node,3,CORRIDOR_POD_2_ZN_1_FLR_1 VAV BOX INLET NODE NAME,VAV_POD_2
   Supply Air Path Node,Outlet Node,4,CORNER_CLASS_2_POD_2_ZN_1_FLR_1 VAV BOX INLET NODE NAME,VAV_POD_2
   Supply Air Path Node,Outlet Node,5,MULT_CLASS_2_POD_2_ZN_1_FLR_1 VAV BOX INLET NODE NAME,VAV_POD_2
 Supply Air Path,7,VAV_POD_3,VAV_POD_3
   #Components on Supply Air Path,1
   Supply Air Path Component,1,AIRLOOPHVAC:ZONESPLITTER,VAV_POD_3 SUPPLY AIR SPLITTER,VAV_POD_3
     #Outlet Nodes on Supply Air Path Component,5
     Supply Air Path Component Nodes,1,AIRLOOPHVAC:ZONESPLITTER,VAV_POD_3 SUPPLY AIR SPLITTER,VAV_POD_3 ZONE EQUIPMENT INLET NODE,CORNER_CLASS_1_POD_3_ZN_1_FLR_1 VAV BOX INLET NODE NAME,VAV_POD_3
     Supply Air Path Component Nodes,2,AIRLOOPHVAC:ZONESPLITTER,VAV_POD_3 SUPPLY AIR SPLITTER,VAV_POD_3 ZONE EQUIPMENT INLET NODE,MULT_CLASS_1_POD_3_ZN_1_FLR_1 VAV BOX INLET NODE NAME,VAV_POD_3
     Supply Air Path Component Nodes,3,AIRLOOPHVAC:ZONESPLITTER,VAV_POD_3 SUPPLY AIR SPLITTER,VAV_POD_3 ZONE EQUIPMENT INLET NODE,CORRIDOR_POD_3_ZN_1_FLR_1 VAV BOX INLET NODE NAME,VAV_POD_3
     Supply Air Path Component Nodes,4,AIRLOOPHVAC:ZONESPLITTER,VAV_POD_3 SUPPLY AIR SPLITTER,VAV_POD_3 ZONE EQUIPMENT INLET NODE,CORNER_CLASS_2_POD_3_ZN_1_FLR_1 VAV BOX INLET NODE NAME,VAV_POD_3
     Supply Air Path Component Nodes,5,AIRLOOPHVAC:ZONESPLITTER,VAV_POD_3 SUPPLY AIR SPLITTER,VAV_POD_3 ZONE EQUIPMENT INLET NODE,MULT_CLASS_2_POD_3_ZN_1_FLR_1 VAV BOX INLET NODE NAME,VAV_POD_3
! <#Nodes on Supply Air Path>,<Number of Nodes>
! <Supply Air Path Node>,<Node Type>,<Node Count>,<Node Name>,<AirLoopHVAC Name>
#Nodes on Supply Air Path,6
   Supply Air Path Node,Inlet Node,1,VAV_POD_3 ZONE EQUIPMENT INLET NODE,VAV_POD_3
   Supply Air Path Node,Outlet Node,2,CORNER_CLASS_1_POD_3_ZN_1_FLR_1 VAV BOX INLET NODE NAME,VAV_POD_3
   Supply Air Path Node,Outlet Node,3,MULT_CLASS_1_POD_3_ZN_1_FLR_1 VAV BOX INLET NODE NAME,VAV_POD_3
   Supply Air Path Node,Outlet Node,4,CORRIDOR_POD_3_ZN_1_FLR_1 VAV BOX INLET NODE NAME,VAV_POD_3
   Supply Air Path Node,Outlet Node,5,CORNER_CLASS_2_POD_3_ZN_1_FLR_1 VAV BOX INLET NODE NAME,VAV_POD_3
   Supply Air Path Node,Outlet Node,6,MULT_CLASS_2_POD_3_ZN_1_FLR_1 VAV BOX INLET NODE NAME,VAV_POD_3
! ===============================================================
! <#Return Air Paths>,<Number of Return Air Paths>
 #Return Air Paths,7
! <Return Air Path>,<Return Air Path Count>,<Return Air Path Name>,<AirLoopHVAC Name>
! <#Components on Return Air Path>,<Number of Components>
! <Return Air Path Component>,<Component Count>,<Component Type>,<Component Name>,<AirLoopHVAC Name>
! <#Inlet Nodes on Return Air Path Component>,<Number of Nodes>
! <Return Air Path Component Nodes>,<Node Count>,<Component Type>,<Component Name>,<Inlet Node Name>,<Outlet Node Name>,<AirLoopHVAC Name>
 Return Air Path,1,PSZ-AC_1:6 RETURN AIR PATH,PSZ-AC_1:6
   #Components on Return Air Path,1
   Return Air Path Component,1,AIRLOOPHVAC:ZONEMIXER,PSZ-AC_1:6 RETURN AIR MIXER,PSZ-AC_1:6
     #Inlet Nodes on Return Air Path Component,1
     Return Air Path Component Nodes,1,AIRLOOPHVAC:ZONEMIXER,PSZ-AC_1:6 RETURN AIR MIXER,KITCHEN_ZN_1_FLR_1 RETURN AIR NODE NAME,PSZ-AC_1:6 ZONE EQUIPMENT OUTLET NODE,PSZ-AC_1:6
! <#Nodes on Return Air Path>,<Number of Nodes>
! <Return Air Path Node>,<Node Type>,<Node Count>,<Node Name>,<AirLoopHVAC Name>
   #Nodes on Return Air Path,2
   Return Air Path Node,Outlet Node,1,PSZ-AC_1:6 ZONE EQUIPMENT OUTLET NODE,PSZ-AC_1:6
   Return Air Path Node,Inlet Node,2,KITCHEN_ZN_1_FLR_1 RETURN AIR NODE NAME,PSZ-AC_1:6
 Return Air Path,2,PSZ-AC_2:5 RETURN AIR PATH,PSZ-AC_2:5
   #Components on Return Air Path,1
   Return Air Path Component,1,AIRLOOPHVAC:ZONEMIXER,PSZ-AC_2:5 RETURN AIR MIXER,PSZ-AC_2:5
     #Inlet Nodes on Return Air Path Component,1
     Return Air Path Component Nodes,1,AIRLOOPHVAC:ZONEMIXER,PSZ-AC_2:5 RETURN AIR MIXER,GYM_ZN_1_FLR_1 RETURN AIR NODE NAME,PSZ-AC_2:5 ZONE EQUIPMENT OUTLET NODE,PSZ-AC_2:5
! <#Nodes on Return Air Path>,<Number of Nodes>
! <Return Air Path Node>,<Node Type>,<Node Count>,<Node Name>,<AirLoopHVAC Name>
   #Nodes on Return Air Path,2
   Return Air Path Node,Outlet Node,1,PSZ-AC_2:5 ZONE EQUIPMENT OUTLET NODE,PSZ-AC_2:5
   Return Air Path Node,Inlet Node,2,GYM_ZN_1_FLR_1 RETURN AIR NODE NAME,PSZ-AC_2:5
 Return Air Path,3,PSZ-AC_2:7 RETURN AIR PATH,PSZ-AC_2:7
   #Components on Return Air Path,1
   Return Air Path Component,1,AIRLOOPHVAC:ZONEMIXER,PSZ-AC_2:7 RETURN AIR MIXER,PSZ-AC_2:7
     #Inlet Nodes on Return Air Path Component,1
     Return Air Path Component Nodes,1,AIRLOOPHVAC:ZONEMIXER,PSZ-AC_2:7 RETURN AIR MIXER,CAFETERIA_ZN_1_FLR_1 RETURN AIR NODE NAME,PSZ-AC_2:7 ZONE EQUIPMENT OUTLET NODE,PSZ-AC_2:7
! <#Nodes on Return Air Path>,<Number of Nodes>
! <Return Air Path Node>,<Node Type>,<Node Count>,<Node Name>,<AirLoopHVAC Name>
   #Nodes on Return Air Path,2
   Return Air Path Node,Outlet Node,1,PSZ-AC_2:7 ZONE EQUIPMENT OUTLET NODE,PSZ-AC_2:7
   Return Air Path Node,Inlet Node,2,CAFETERIA_ZN_1_FLR_1 RETURN AIR NODE NAME,PSZ-AC_2:7
 Return Air Path,4,VAV_OTHER RETURN AIR PATH,VAV_OTHER
   #Components on Return Air Path,1
   Return Air Path Component,1,AIRLOOPHVAC:ZONEMIXER,VAV_OTHER RETURN AIR MIXER,VAV_OTHER
     #Inlet Nodes on Return Air Path Component,7
     Return Air Path Component Nodes,1,AIRLOOPHVAC:ZONEMIXER,VAV_OTHER RETURN AIR MIXER,COMPUTER_CLASS_ZN_1_FLR_1 RETURN AIR NODE NAME,VAV_OTHER ZONE EQUIPMENT OUTLET NODE,VAV_OTHER
     Return Air Path Component Nodes,2,AIRLOOPHVAC:ZONEMIXER,VAV_OTHER RETURN AIR MIXER,MAIN_CORRIDOR_ZN_1_FLR_1 RETURN AIR NODE NAME,VAV_OTHER ZONE EQUIPMENT OUTLET NODE,VAV_OTHER
     Return Air Path Component Nodes,3,AIRLOOPHVAC:ZONEMIXER,VAV_OTHER RETURN AIR MIXER,LOBBY_ZN_1_FLR_1 RETURN AIR NODE NAME,VAV_OTHER ZONE EQUIPMENT OUTLET NODE,VAV_OTHER
     Return Air Path Component Nodes,4,AIRLOOPHVAC:ZONEMIXER,VAV_OTHER RETURN AIR MIXER,MECH_ZN_1_FLR_1 RETURN AIR NODE NAME,VAV_OTHER ZONE EQUIPMENT OUTLET NODE,VAV_OTHER
     Return Air Path Component Nodes,5,AIRLOOPHVAC:ZONEMIXER,VAV_OTHER RETURN AIR MIXER,BATH_ZN_1_FLR_1 RETURN AIR NODE NAME,VAV_OTHER ZONE EQUIPMENT OUTLET NODE,VAV_OTHER
     Return Air Path Component Nodes,6,AIRLOOPHVAC:ZONEMIXER,VAV_OTHER RETURN AIR MIXER,OFFICES_ZN_1_FLR_1 RETURN AIR NODE NAME,VAV_OTHER ZONE EQUIPMENT OUTLET NODE,VAV_OTHER
     Return Air Path Component Nodes,7,AIRLOOPHVAC:ZONEMIXER,VAV_OTHER RETURN AIR MIXER,LIBRARY_MEDIA_CENTER_ZN_1_FLR_1 RETURN AIR NODE NAME,VAV_OTHER ZONE EQUIPMENT OUTLET NODE,VAV_OTHER
! <#Nodes on Return Air Path>,<Number of Nodes>
! <Return Air Path Node>,<Node Type>,<Node Count>,<Node Name>,<AirLoopHVAC Name>
   #Nodes on Return Air Path,8
   Return Air Path Node,Outlet Node,1,VAV_OTHER ZONE EQUIPMENT OUTLET NODE,VAV_OTHER
   Return Air Path Node,Inlet Node,2,COMPUTER_CLASS_ZN_1_FLR_1 RETURN AIR NODE NAME,VAV_OTHER
   Return Air Path Node,Inlet Node,3,MAIN_CORRIDOR_ZN_1_FLR_1 RETURN AIR NODE NAME,VAV_OTHER
   Return Air Path Node,Inlet Node,4,LOBBY_ZN_1_FLR_1 RETURN AIR NODE NAME,VAV_OTHER
   Return Air Path Node,Inlet Node,5,MECH_ZN_1_FLR_1 RETURN AIR NODE NAME,VAV_OTHER
   Return Air Path Node,Inlet Node,6,BATH_ZN_1_FLR_1 RETURN AIR NODE NAME,VAV_OTHER
   Return Air Path Node,Inlet Node,7,OFFICES_ZN_1_FLR_1 RETURN AIR NODE NAME,VAV_OTHER
   Return Air Path Node,Inlet Node,8,LIBRARY_MEDIA_CENTER_ZN_1_FLR_1 RETURN AIR NODE NAME,VAV_OTHER
 Return Air Path,5,VAV_POD_1 RETURN AIR PATH,VAV_POD_1
   #Components on Return Air Path,1
   Return Air Path Component,1,AIRLOOPHVAC:ZONEMIXER,VAV_POD_1 RETURN AIR MIXER,VAV_POD_1
     #Inlet Nodes on Return Air Path Component,6
     Return Air Path Component Nodes,1,AIRLOOPHVAC:ZONEMIXER,VAV_POD_1 RETURN AIR MIXER,CORNER_CLASS_1_POD_1_ZN_1_FLR_1 RETURN AIR NODE NAME,VAV_POD_1 ZONE EQUIPMENT OUTLET NODE,VAV_POD_1
     Return Air Path Component Nodes,2,AIRLOOPHVAC:ZONEMIXER,VAV_POD_1 RETURN AIR MIXER,MULT_CLASS_1_POD_1_ZN_1_FLR_1 RETURN AIR NODE NAME,VAV_POD_1 ZONE EQUIPMENT OUTLET NODE,VAV_POD_1
     Return Air Path Component Nodes,3,AIRLOOPHVAC:ZONEMIXER,VAV_POD_1 RETURN AIR MIXER,CORRIDOR_POD_1_ZN_1_FLR_1 RETURN AIR NODE NAME,VAV_POD_1 ZONE EQUIPMENT OUTLET NODE,VAV_POD_1
     Return Air Path Component Nodes,4,AIRLOOPHVAC:ZONEMIXER,VAV_POD_1 RETURN AIR MIXER,CORNER_CLASS_2_POD_1_ZN_1_FLR_1 RETURN AIR NODE NAME,VAV_POD_1 ZONE EQUIPMENT OUTLET NODE,VAV_POD_1
     Return Air Path Component Nodes,5,AIRLOOPHVAC:ZONEMIXER,VAV_POD_1 RETURN AIR MIXER,MULT_CLASS_2_POD_1_ZN_1_FLR_1 RETURN AIR NODE NAME,VAV_POD_1 ZONE EQUIPMENT OUTLET NODE,VAV_POD_1
     Return Air Path Component Nodes,6,AIRLOOPHVAC:ZONEMIXER,VAV_POD_1 RETURN AIR MIXER,CORNER_CLASS_1_POD_2_ZN_1_FLR_1 RETURN AIR NODE NAME,VAV_POD_1 ZONE EQUIPMENT OUTLET NODE,VAV_POD_1
! <#Nodes on Return Air Path>,<Number of Nodes>
! <Return Air Path Node>,<Node Type>,<Node Count>,<Node Name>,<AirLoopHVAC Name>
   #Nodes on Return Air Path,7
   Return Air Path Node,Outlet Node,1,VAV_POD_1 ZONE EQUIPMENT OUTLET NODE,VAV_POD_1
   Return Air Path Node,Inlet Node,2,CORNER_CLASS_1_POD_1_ZN_1_FLR_1 RETURN AIR NODE NAME,VAV_POD_1
   Return Air Path Node,Inlet Node,3,MULT_CLASS_1_POD_1_ZN_1_FLR_1 RETURN AIR NODE NAME,VAV_POD_1
   Return Air Path Node,Inlet Node,4,CORRIDOR_POD_1_ZN_1_FLR_1 RETURN AIR NODE NAME,VAV_POD_1
   Return Air Path Node,Inlet Node,5,CORNER_CLASS_2_POD_1_ZN_1_FLR_1 RETURN AIR NODE NAME,VAV_POD_1
   Return Air Path Node,Inlet Node,6,MULT_CLASS_2_POD_1_ZN_1_FLR_1 RETURN AIR NODE NAME,VAV_POD_1
   Return Air Path Node,Inlet Node,7,CORNER_CLASS_1_POD_2_ZN_1_FLR_1 RETURN AIR NODE NAME,VAV_POD_1
 Return Air Path,6,VAV_POD_2 RETURN AIR PATH,VAV_POD_2
   #Components on Return Air Path,1
   Return Air Path Component,1,AIRLOOPHVAC:ZONEMIXER,VAV_POD_2 RETURN AIR MIXER,VAV_POD_2
     #Inlet Nodes on Return Air Path Component,4
     Return Air Path Component Nodes,1,AIRLOOPHVAC:ZONEMIXER,VAV_POD_2 RETURN AIR MIXER,MULT_CLASS_1_POD_2_ZN_1_FLR_1 RETURN AIR NODE NAME,VAV_POD_2 ZONE EQUIPMENT OUTLET NODE,VAV_POD_2
     Return Air Path Component Nodes,2,AIRLOOPHVAC:ZONEMIXER,VAV_POD_2 RETURN AIR MIXER,CORRIDOR_POD_2_ZN_1_FLR_1 RETURN AIR NODE NAME,VAV_POD_2 ZONE EQUIPMENT OUTLET NODE,VAV_POD_2
     Return Air Path Component Nodes,3,AIRLOOPHVAC:ZONEMIXER,VAV_POD_2 RETURN AIR MIXER,CORNER_CLASS_2_POD_2_ZN_1_FLR_1 RETURN AIR NODE NAME,VAV_POD_2 ZONE EQUIPMENT OUTLET NODE,VAV_POD_2
     Return Air Path Component Nodes,4,AIRLOOPHVAC:ZONEMIXER,VAV_POD_2 RETURN AIR MIXER,MULT_CLASS_2_POD_2_ZN_1_FLR_1 RETURN AIR NODE NAME,VAV_POD_2 ZONE EQUIPMENT OUTLET NODE,VAV_POD_2
! <#Nodes on Return Air Path>,<Number of Nodes>
! <Return Air Path Node>,<Node Type>,<Node Count>,<Node Name>,<AirLoopHVAC Name>
   #Nodes on Return Air Path,5
   Return Air Path Node,Outlet Node,1,VAV_POD_2 ZONE EQUIPMENT OUTLET NODE,VAV_POD_2
   Return Air Path Node,Inlet Node,2,MULT_CLASS_1_POD_2_ZN_1_FLR_1 RETURN AIR NODE NAME,VAV_POD_2
   Return Air Path Node,Inlet Node,3,CORRIDOR_POD_2_ZN_1_FLR_1 RETURN AIR NODE NAME,VAV_POD_2
   Return Air Path Node,Inlet Node,4,CORNER_CLASS_2_POD_2_ZN_1_FLR_1 RETURN AIR NODE NAME,VAV_POD_2
   Return Air Path Node,Inlet Node,5,MULT_CLASS_2_POD_2_ZN_1_FLR_1 RETURN AIR NODE NAME,VAV_POD_2
 Return Air Path,7,VAV_POD_3 RETURN AIR PATH,VAV_POD_3
   #Components on Return Air Path,1
   Return Air Path Component,1,AIRLOOPHVAC:ZONEMIXER,VAV_POD_3 RETURN AIR MIXER,VAV_POD_3
     #Inlet Nodes on Return Air Path Component,5
     Return Air Path Component Nodes,1,AIRLOOPHVAC:ZONEMIXER,VAV_POD_3 RETURN AIR MIXER,CORNER_CLASS_1_POD_3_ZN_1_FLR_1 RETURN AIR NODE NAME,VAV_POD_3 ZONE EQUIPMENT OUTLET NODE,VAV_POD_3
     Return Air Path Component Nodes,2,AIRLOOPHVAC:ZONEMIXER,VAV_POD_3 RETURN AIR MIXER,MULT_CLASS_1_POD_3_ZN_1_FLR_1 RETURN AIR NODE NAME,VAV_POD_3 ZONE EQUIPMENT OUTLET NODE,VAV_POD_3
     Return Air Path Component Nodes,3,AIRLOOPHVAC:ZONEMIXER,VAV_POD_3 RETURN AIR MIXER,CORRIDOR_POD_3_ZN_1_FLR_1 RETURN AIR NODE NAME,VAV_POD_3 ZONE EQUIPMENT OUTLET NODE,VAV_POD_3
     Return Air Path Component Nodes,4,AIRLOOPHVAC:ZONEMIXER,VAV_POD_3 RETURN AIR MIXER,CORNER_CLASS_2_POD_3_ZN_1_FLR_1 RETURN AIR NODE NAME,VAV_POD_3 ZONE EQUIPMENT OUTLET NODE,VAV_POD_3
     Return Air Path Component Nodes,5,AIRLOOPHVAC:ZONEMIXER,VAV_POD_3 RETURN AIR MIXER,MULT_CLASS_2_POD_3_ZN_1_FLR_1 RETURN AIR NODE NAME,VAV_POD_3 ZONE EQUIPMENT OUTLET NODE,VAV_POD_3
! <#Nodes on Return Air Path>,<Number of Nodes>
! <Return Air Path Node>,<Node Type>,<Node Count>,<Node Name>,<AirLoopHVAC Name>
   #Nodes on Return Air Path,6
   Return Air Path Node,Outlet Node,1,VAV_POD_3 ZONE EQUIPMENT OUTLET NODE,VAV_POD_3
   Return Air Path Node,Inlet Node,2,CORNER_CLASS_1_POD_3_ZN_1_FLR_1 RETURN AIR NODE NAME,VAV_POD_3
   Return Air Path Node,Inlet Node,3,MULT_CLASS_1_POD_3_ZN_1_FLR_1 RETURN AIR NODE NAME,VAV_POD_3
   Return Air Path Node,Inlet Node,4,CORRIDOR_POD_3_ZN_1_FLR_1 RETURN AIR NODE NAME,VAV_POD_3
   Return Air Path Node,Inlet Node,5,CORNER_CLASS_2_POD_3_ZN_1_FLR_1 RETURN AIR NODE NAME,VAV_POD_3
   Return Air Path Node,Inlet Node,6,MULT_CLASS_2_POD_3_ZN_1_FLR_1 RETURN AIR NODE NAME,VAV_POD_3
! ===============================================================
! #Outdoor Air Nodes,<Number of Outdoor Air Nodes>
 #Outdoor Air Nodes,17
! <Outdoor Air Node>,<NodeNumber>,<Node Name>
 Outdoor Air Node,29,PSZ-AC_1:6_OAINLET NODE
 Outdoor Air Node,30,PSZ-AC_2:5_OAINLET NODE
 Outdoor Air Node,31,PSZ-AC_2:7_OAINLET NODE
 Outdoor Air Node,32,VAV_OTHER_OAINLET NODE
 Outdoor Air Node,33,VAV_POD_1_OAINLET NODE
 Outdoor Air Node,34,VAV_POD_2_OAINLET NODE
 Outdoor Air Node,35,VAV_POD_3_OAINLET NODE
 Outdoor Air Node,220,VAV_OTHER_COOLC COND OA NODE
 Outdoor Air Node,221,VAV_OTHER_COOLCOA REF NODE
 Outdoor Air Node,222,VAV_POD_1_COOLC COND OA NODE
 Outdoor Air Node,223,VAV_POD_1_COOLCOA REF NODE
 Outdoor Air Node,224,VAV_POD_2_COOLC COND OA NODE
 Outdoor Air Node,225,VAV_POD_2_COOLCOA REF NODE
 Outdoor Air Node,226,VAV_POD_3_COOLC COND OA NODE
 Outdoor Air Node,227,VAV_POD_3_COOLCOA REF NODE
 Outdoor Air Node,219,RACK1_CONDENSERINLET
 Outdoor Air Node,228,RACK2_CONDENSERINLET
! ===============================================================
! <#Component Sets>,<Number of Component Sets>
 #Component Sets,131
! <Component Set>,<Component Set Count>,<Parent Object Type>,<Parent Object Name>,<Component Type>,<Component Name>,<Inlet Node ID>,<Outlet Node ID>,<Description>
 Component Set,1,BRANCH,PSZ-AC_1:6 AIR LOOP MAIN BRANCH,AIRLOOPHVAC:OUTDOORAIRSYSTEM,PSZ-AC_1:6_OA,PSZ-AC_1:6 SUPPLY EQUIPMENT INLET NODE,PSZ-AC_1:6_OA-PSZ-AC_1:6_COOLCNODE,Air Nodes
 Component Set,2,BRANCH,PSZ-AC_1:6 AIR LOOP MAIN BRANCH,COILSYSTEM:COOLING:DX,PSZ-AC_1:6_COOLC,PSZ-AC_1:6_OA-PSZ-AC_1:6_COOLCNODE,PSZ-AC_1:6_COOLC-PSZ-AC_1:6_HEATCNODE,Air Nodes
 Component Set,3,BRANCH,PSZ-AC_1:6 AIR LOOP MAIN BRANCH,COIL:HEATING:ELECTRIC,PSZ-AC_1:6_HEATC,PSZ-AC_1:6_COOLC-PSZ-AC_1:6_HEATCNODE,PSZ-AC_1:6_HEATC-PSZ-AC_1:6_FANNODE,Air Nodes
 Component Set,4,BRANCH,PSZ-AC_1:6 AIR LOOP MAIN BRANCH,FAN:CONSTANTVOLUME,PSZ-AC_1:6_FAN,PSZ-AC_1:6_HEATC-PSZ-AC_1:6_FANNODE,PSZ-AC_1:6 SUPPLY EQUIPMENT OUTLET NODE,Air Nodes
 Component Set,5,BRANCH,PSZ-AC_2:5 AIR LOOP MAIN BRANCH,AIRLOOPHVAC:OUTDOORAIRSYSTEM,PSZ-AC_2:5_OA,PSZ-AC_2:5 SUPPLY EQUIPMENT INLET NODE,PSZ-AC_2:5_OA-PSZ-AC_2:5_COOLCNODE,Air Nodes
 Component Set,6,BRANCH,PSZ-AC_2:5 AIR LOOP MAIN BRANCH,COILSYSTEM:COOLING:DX,PSZ-AC_2:5_COOLC,PSZ-AC_2:5_OA-PSZ-AC_2:5_COOLCNODE,PSZ-AC_2:5_COOLC-PSZ-AC_2:5_HEATCNODE,Air Nodes
 Component Set,7,BRANCH,PSZ-AC_2:5 AIR LOOP MAIN BRANCH,COIL:HEATING:ELECTRIC,PSZ-AC_2:5_HEATC,PSZ-AC_2:5_COOLC-PSZ-AC_2:5_HEATCNODE,PSZ-AC_2:5_HEATC-PSZ-AC_2:5_FANNODE,Air Nodes
 Component Set,8,BRANCH,PSZ-AC_2:5 AIR LOOP MAIN BRANCH,FAN:CONSTANTVOLUME,PSZ-AC_2:5_FAN,PSZ-AC_2:5_HEATC-PSZ-AC_2:5_FANNODE,PSZ-AC_2:5 SUPPLY EQUIPMENT OUTLET NODE,Air Nodes
 Component Set,9,BRANCH,PSZ-AC_2:7 AIR LOOP MAIN BRANCH,AIRLOOPHVAC:OUTDOORAIRSYSTEM,PSZ-AC_2:7_OA,PSZ-AC_2:7 SUPPLY EQUIPMENT INLET NODE,PSZ-AC_2:7_OA-PSZ-AC_2:7_COOLCNODE,Air Nodes
 Component Set,10,BRANCH,PSZ-AC_2:7 AIR LOOP MAIN BRANCH,COILSYSTEM:COOLING:DX,PSZ-AC_2:7_COOLC,PSZ-AC_2:7_OA-PSZ-AC_2:7_COOLCNODE,PSZ-AC_2:7_COOLC-PSZ-AC_2:7_HEATCNODE,Air Nodes
 Component Set,11,BRANCH,PSZ-AC_2:7 AIR LOOP MAIN BRANCH,COIL:HEATING:ELECTRIC,PSZ-AC_2:7_HEATC,PSZ-AC_2:7_COOLC-PSZ-AC_2:7_HEATCNODE,PSZ-AC_2:7_HEATC-PSZ-AC_2:7_FANNODE,Air Nodes
 Component Set,12,BRANCH,PSZ-AC_2:7 AIR LOOP MAIN BRANCH,FAN:CONSTANTVOLUME,PSZ-AC_2:7_FAN,PSZ-AC_2:7_HEATC-PSZ-AC_2:7_FANNODE,PSZ-AC_2:7 SUPPLY EQUIPMENT OUTLET NODE,Air Nodes
 Component Set,13,BRANCH,VAV_OTHER AIR LOOP MAIN BRANCH,AIRLOOPHVAC:OUTDOORAIRSYSTEM,VAV_OTHER_OA,VAV_OTHER SUPPLY EQUIPMENT INLET NODE,VAV_OTHER_OA-VAV_OTHER_COOLCNODE,Air Nodes
 Component Set,14,BRANCH,VAV_OTHER AIR LOOP MAIN BRANCH,COILSYSTEM:COOLING:DX,VAV_OTHER_COOLC,VAV_OTHER_OA-VAV_OTHER_COOLCNODE,VAV_OTHER_COOLC-VAV_OTHER_HEATCNODE,Air Nodes
 Component Set,15,BRANCH,VAV_OTHER AIR LOOP MAIN BRANCH,COIL:HEATING:WATER,VAV_OTHER_HEATC,VAV_OTHER_COOLC-VAV_OTHER_HEATCNODE,VAV_OTHER_HEATC-VAV_OTHER_FANNODE,Air Nodes
 Component Set,16,BRANCH,VAV_OTHER AIR LOOP MAIN BRANCH,FAN:VARIABLEVOLUME,VAV_OTHER_FAN,VAV_OTHER_HEATC-VAV_OTHER_FANNODE,VAV_OTHER SUPPLY EQUIPMENT OUTLET NODE,Air Nodes
 Component Set,17,BRANCH,VAV_POD_1 AIR LOOP MAIN BRANCH,AIRLOOPHVAC:OUTDOORAIRSYSTEM,VAV_POD_1_OA,VAV_POD_1 SUPPLY EQUIPMENT INLET NODE,VAV_POD_1_OA-VAV_POD_1_COOLCNODE,Air Nodes
 Component Set,18,BRANCH,VAV_POD_1 AIR LOOP MAIN BRANCH,COILSYSTEM:COOLING:DX,VAV_POD_1_COOLC,VAV_POD_1_OA-VAV_POD_1_COOLCNODE,VAV_POD_1_COOLC-VAV_POD_1_HEATCNODE,Air Nodes
 Component Set,19,BRANCH,VAV_POD_1 AIR LOOP MAIN BRANCH,COIL:HEATING:WATER,VAV_POD_1_HEATC,VAV_POD_1_COOLC-VAV_POD_1_HEATCNODE,VAV_POD_1_HEATC-VAV_POD_1_FANNODE,Air Nodes
 Component Set,20,BRANCH,VAV_POD_1 AIR LOOP MAIN BRANCH,FAN:VARIABLEVOLUME,VAV_POD_1_FAN,VAV_POD_1_HEATC-VAV_POD_1_FANNODE,VAV_POD_1 SUPPLY EQUIPMENT OUTLET NODE,Air Nodes
 Component Set,21,BRANCH,VAV_POD_2 AIR LOOP MAIN BRANCH,AIRLOOPHVAC:OUTDOORAIRSYSTEM,VAV_POD_2_OA,VAV_POD_2 SUPPLY EQUIPMENT INLET NODE,VAV_POD_2_OA-VAV_POD_2_COOLCNODE,Air Nodes
 Component Set,22,BRANCH,VAV_POD_2 AIR LOOP MAIN BRANCH,COILSYSTEM:COOLING:DX,VAV_POD_2_COOLC,VAV_POD_2_OA-VAV_POD_2_COOLCNODE,VAV_POD_2_COOLC-VAV_POD_2_HEATCNODE,Air Nodes
 Component Set,23,BRANCH,VAV_POD_2 AIR LOOP MAIN BRANCH,COIL:HEATING:WATER,VAV_POD_2_HEATC,VAV_POD_2_COOLC-VAV_POD_2_HEATCNODE,VAV_POD_2_HEATC-VAV_POD_2_FANNODE,Air Nodes
 Component Set,24,BRANCH,VAV_POD_2 AIR LOOP MAIN BRANCH,FAN:VARIABLEVOLUME,VAV_POD_2_FAN,VAV_POD_2_HEATC-VAV_POD_2_FANNODE,VAV_POD_2 SUPPLY EQUIPMENT OUTLET NODE,Air Nodes
 Component Set,25,BRANCH,VAV_POD_3 AIR LOOP MAIN BRANCH,AIRLOOPHVAC:OUTDOORAIRSYSTEM,VAV_POD_3_OA,VAV_POD_3 SUPPLY EQUIPMENT INLET NODE,VAV_POD_3_OA-VAV_POD_3_COOLCNODE,Air Nodes
 Component Set,26,BRANCH,VAV_POD_3 AIR LOOP MAIN BRANCH,COILSYSTEM:COOLING:DX,VAV_POD_3_COOLC,VAV_POD_3_OA-VAV_POD_3_COOLCNODE,VAV_POD_3_COOLC-VAV_POD_3_HEATCNODE,Air Nodes
 Component Set,27,BRANCH,VAV_POD_3 AIR LOOP MAIN BRANCH,COIL:HEATING:WATER,VAV_POD_3_HEATC,VAV_POD_3_COOLC-VAV_POD_3_HEATCNODE,VAV_POD_3_HEATC-VAV_POD_3_FANNODE,Air Nodes
 Component Set,28,BRANCH,VAV_POD_3 AIR LOOP MAIN BRANCH,FAN:VARIABLEVOLUME,VAV_POD_3_FAN,VAV_POD_3_HEATC-VAV_POD_3_FANNODE,VAV_POD_3 SUPPLY EQUIPMENT OUTLET NODE,Air Nodes
 Component Set,29,BRANCH,HEATSYS1 DEMAND BYPASS BRANCH,PIPE:ADIABATIC,HEATSYS1 DEMAND BYPASS PIPE,HEATSYS1 DEMAND BYPASS PIPE INLET NODE,HEATSYS1 DEMAND BYPASS PIPE OUTLET NODE,Pipe Nodes
 Component Set,30,BRANCH,HEATSYS1 DEMAND INLET BRANCH,PIPE:ADIABATIC,HEATSYS1 DEMAND INLET PIPE,HEATSYS1 DEMAND INLET NODE,HEATSYS1 DEMAND INLET PIPE-HEATSYS1 DEMAND MIXER,Pipe Nodes
 Component Set,31,BRANCH,HEATSYS1 DEMAND LOAD BRANCH 1,COIL:HEATING:WATER,CORNER_CLASS_1_POD_1_ZN_1_FLR_1 VAV BOX REHEAT COIL,CORNER_CLASS_1_POD_1_ZN_1_FLR_1 VAV BOX REHEAT COILDEMAND INLET NODE,CORNER_CLASS_1_POD_1_ZN_1_FLR_1 VAV BOX REHEAT COILDEMAND OUTLET NODE,Water Nodes
 Component Set,32,BRANCH,HEATSYS1 DEMAND LOAD BRANCH 10,COIL:HEATING:WATER,MULT_CLASS_2_POD_2_ZN_1_FLR_1 VAV BOX REHEAT COIL,MULT_CLASS_2_POD_2_ZN_1_FLR_1 VAV BOX REHEAT COILDEMAND INLET NODE,MULT_CLASS_2_POD_2_ZN_1_FLR_1 VAV BOX REHEAT COILDEMAND OUTLET NODE,Water Nodes
 Component Set,33,BRANCH,HEATSYS1 DEMAND LOAD BRANCH 11,COIL:HEATING:WATER,CORNER_CLASS_1_POD_3_ZN_1_FLR_1 VAV BOX REHEAT COIL,CORNER_CLASS_1_POD_3_ZN_1_FLR_1 VAV BOX REHEAT COILDEMAND INLET NODE,CORNER_CLASS_1_POD_3_ZN_1_FLR_1 VAV BOX REHEAT COILDEMAND OUTLET NODE,Water Nodes
 Component Set,34,BRANCH,HEATSYS1 DEMAND LOAD BRANCH 12,COIL:HEATING:WATER,MULT_CLASS_1_POD_3_ZN_1_FLR_1 VAV BOX REHEAT COIL,MULT_CLASS_1_POD_3_ZN_1_FLR_1 VAV BOX REHEAT COILDEMAND INLET NODE,MULT_CLASS_1_POD_3_ZN_1_FLR_1 VAV BOX REHEAT COILDEMAND OUTLET NODE,Water Nodes
 Component Set,35,BRANCH,HEATSYS1 DEMAND LOAD BRANCH 13,COIL:HEATING:WATER,CORRIDOR_POD_3_ZN_1_FLR_1 VAV BOX REHEAT COIL,CORRIDOR_POD_3_ZN_1_FLR_1 VAV BOX REHEAT COILDEMAND INLET NODE,CORRIDOR_POD_3_ZN_1_FLR_1 VAV BOX REHEAT COILDEMAND OUTLET NODE,Water Nodes
 Component Set,36,BRANCH,HEATSYS1 DEMAND LOAD BRANCH 14,COIL:HEATING:WATER,CORNER_CLASS_2_POD_3_ZN_1_FLR_1 VAV BOX REHEAT COIL,CORNER_CLASS_2_POD_3_ZN_1_FLR_1 VAV BOX REHEAT COILDEMAND INLET NODE,CORNER_CLASS_2_POD_3_ZN_1_FLR_1 VAV BOX REHEAT COILDEMAND OUTLET NODE,Water Nodes
 Component Set,37,BRANCH,HEATSYS1 DEMAND LOAD BRANCH 15,COIL:HEATING:WATER,MULT_CLASS_2_POD_3_ZN_1_FLR_1 VAV BOX REHEAT COIL,MULT_CLASS_2_POD_3_ZN_1_FLR_1 VAV BOX REHEAT COILDEMAND INLET NODE,MULT_CLASS_2_POD_3_ZN_1_FLR_1 VAV BOX REHEAT COILDEMAND OUTLET NODE,Water Nodes
 Component Set,38,BRANCH,HEATSYS1 DEMAND LOAD BRANCH 16,COIL:HEATING:WATER,COMPUTER_CLASS_ZN_1_FLR_1 VAV BOX REHEAT COIL,COMPUTER_CLASS_ZN_1_FLR_1 VAV BOX REHEAT COILDEMAND INLET NODE,COMPUTER_CLASS_ZN_1_FLR_1 VAV BOX REHEAT COILDEMAND OUTLET NODE,Water Nodes
 Component Set,39,BRANCH,HEATSYS1 DEMAND LOAD BRANCH 17,COIL:HEATING:WATER,MAIN_CORRIDOR_ZN_1_FLR_1 VAV BOX REHEAT COIL,MAIN_CORRIDOR_ZN_1_FLR_1 VAV BOX REHEAT COILDEMAND INLET NODE,MAIN_CORRIDOR_ZN_1_FLR_1 VAV BOX REHEAT COILDEMAND OUTLET NODE,Water Nodes
 Component Set,40,BRANCH,HEATSYS1 DEMAND LOAD BRANCH 18,COIL:HEATING:WATER,LOBBY_ZN_1_FLR_1 VAV BOX REHEAT COIL,LOBBY_ZN_1_FLR_1 VAV BOX REHEAT COILDEMAND INLET NODE,LOBBY_ZN_1_FLR_1 VAV BOX REHEAT COILDEMAND OUTLET NODE,Water Nodes
 Component Set,41,BRANCH,HEATSYS1 DEMAND LOAD BRANCH 19,COIL:HEATING:WATER,MECH_ZN_1_FLR_1 VAV BOX REHEAT COIL,MECH_ZN_1_FLR_1 VAV BOX REHEAT COILDEMAND INLET NODE,MECH_ZN_1_FLR_1 VAV BOX REHEAT COILDEMAND OUTLET NODE,Water Nodes
 Component Set,42,BRANCH,HEATSYS1 DEMAND LOAD BRANCH 2,COIL:HEATING:WATER,MULT_CLASS_1_POD_1_ZN_1_FLR_1 VAV BOX REHEAT COIL,MULT_CLASS_1_POD_1_ZN_1_FLR_1 VAV BOX REHEAT COILDEMAND INLET NODE,MULT_CLASS_1_POD_1_ZN_1_FLR_1 VAV BOX REHEAT COILDEMAND OUTLET NODE,Water Nodes
 Component Set,43,BRANCH,HEATSYS1 DEMAND LOAD BRANCH 20,COIL:HEATING:WATER,BATH_ZN_1_FLR_1 VAV BOX REHEAT COIL,BATH_ZN_1_FLR_1 VAV BOX REHEAT COILDEMAND INLET NODE,BATH_ZN_1_FLR_1 VAV BOX REHEAT COILDEMAND OUTLET NODE,Water Nodes
 Component Set,44,BRANCH,HEATSYS1 DEMAND LOAD BRANCH 21,COIL:HEATING:WATER,OFFICES_ZN_1_FLR_1 VAV BOX REHEAT COIL,OFFICES_ZN_1_FLR_1 VAV BOX REHEAT COILDEMAND INLET NODE,OFFICES_ZN_1_FLR_1 VAV BOX REHEAT COILDEMAND OUTLET NODE,Water Nodes
 Component Set,45,BRANCH,HEATSYS1 DEMAND LOAD BRANCH 22,COIL:HEATING:WATER,LIBRARY_MEDIA_CENTER_ZN_1_FLR_1 VAV BOX REHEAT COIL,LIBRARY_MEDIA_CENTER_ZN_1_FLR_1 VAV BOX REHEAT COILDEMAND INLET NODE,LIBRARY_MEDIA_CENTER_ZN_1_FLR_1 VAV BOX REHEAT COILDEMAND OUTLET NODE,Water Nodes
 Component Set,46,BRANCH,HEATSYS1 DEMAND LOAD BRANCH 23,COIL:HEATING:WATER,VAV_POD_1_HEATC,VAV_POD_1_HEATCDEMAND INLET NODE,VAV_POD_1_HEATCDEMAND OUTLET NODE,Water Nodes
 Component Set,47,BRANCH,HEATSYS1 DEMAND LOAD BRANCH 24,COIL:HEATING:WATER,VAV_POD_2_HEATC,VAV_POD_2_HEATCDEMAND INLET NODE,VAV_POD_2_HEATCDEMAND OUTLET NODE,Water Nodes
 Component Set,48,BRANCH,HEATSYS1 DEMAND LOAD BRANCH 25,COIL:HEATING:WATER,VAV_POD_3_HEATC,VAV_POD_3_HEATCDEMAND INLET NODE,VAV_POD_3_HEATCDEMAND OUTLET NODE,Water Nodes
 Component Set,49,BRANCH,HEATSYS1 DEMAND LOAD BRANCH 26,COIL:HEATING:WATER,VAV_OTHER_HEATC,VAV_OTHER_HEATCDEMAND INLET NODE,VAV_OTHER_HEATCDEMAND OUTLET NODE,Water Nodes
 Component Set,50,BRANCH,HEATSYS1 DEMAND LOAD BRANCH 3,COIL:HEATING:WATER,CORRIDOR_POD_1_ZN_1_FLR_1 VAV BOX REHEAT COIL,CORRIDOR_POD_1_ZN_1_FLR_1 VAV BOX REHEAT COILDEMAND INLET NODE,CORRIDOR_POD_1_ZN_1_FLR_1 VAV BOX REHEAT COILDEMAND OUTLET NODE,Water Nodes
 Component Set,51,BRANCH,HEATSYS1 DEMAND LOAD BRANCH 4,COIL:HEATING:WATER,CORNER_CLASS_2_POD_1_ZN_1_FLR_1 VAV BOX REHEAT COIL,CORNER_CLASS_2_POD_1_ZN_1_FLR_1 VAV BOX REHEAT COILDEMAND INLET NODE,CORNER_CLASS_2_POD_1_ZN_1_FLR_1 VAV BOX REHEAT COILDEMAND OUTLET NODE,Water Nodes
 Component Set,52,BRANCH,HEATSYS1 DEMAND LOAD BRANCH 5,COIL:HEATING:WATER,MULT_CLASS_2_POD_1_ZN_1_FLR_1 VAV BOX REHEAT COIL,MULT_CLASS_2_POD_1_ZN_1_FLR_1 VAV BOX REHEAT COILDEMAND INLET NODE,MULT_CLASS_2_POD_1_ZN_1_FLR_1 VAV BOX REHEAT COILDEMAND OUTLET NODE,Water Nodes
 Component Set,53,BRANCH,HEATSYS1 DEMAND LOAD BRANCH 6,COIL:HEATING:WATER,CORNER_CLASS_1_POD_2_ZN_1_FLR_1 VAV BOX REHEAT COIL,CORNER_CLASS_1_POD_2_ZN_1_FLR_1 VAV BOX REHEAT COILDEMAND INLET NODE,CORNER_CLASS_1_POD_2_ZN_1_FLR_1 VAV BOX REHEAT COILDEMAND OUTLET NODE,Water Nodes
 Component Set,54,BRANCH,HEATSYS1 DEMAND LOAD BRANCH 7,COIL:HEATING:WATER,MULT_CLASS_1_POD_2_ZN_1_FLR_1 VAV BOX REHEAT COIL,MULT_CLASS_1_POD_2_ZN_1_FLR_1 VAV BOX REHEAT COILDEMAND INLET NODE,MULT_CLASS_1_POD_2_ZN_1_FLR_1 VAV BOX REHEAT COILDEMAND OUTLET NODE,Water Nodes
 Component Set,55,BRANCH,HEATSYS1 DEMAND LOAD BRANCH 8,COIL:HEATING:WATER,CORRIDOR_POD_2_ZN_1_FLR_1 VAV BOX REHEAT COIL,CORRIDOR_POD_2_ZN_1_FLR_1 VAV BOX REHEAT COILDEMAND INLET NODE,CORRIDOR_POD_2_ZN_1_FLR_1 VAV BOX REHEAT COILDEMAND OUTLET NODE,Water Nodes
 Component Set,56,BRANCH,HEATSYS1 DEMAND LOAD BRANCH 9,COIL:HEATING:WATER,CORNER_CLASS_2_POD_2_ZN_1_FLR_1 VAV BOX REHEAT COIL,CORNER_CLASS_2_POD_2_ZN_1_FLR_1 VAV BOX REHEAT COILDEMAND INLET NODE,CORNER_CLASS_2_POD_2_ZN_1_FLR_1 VAV BOX REHEAT COILDEMAND OUTLET NODE,Water Nodes
 Component Set,57,BRANCH,HEATSYS1 DEMAND OUTLET BRANCH,PIPE:ADIABATIC,HEATSYS1 DEMAND OUTLET PIPE,HEATSYS1 DEMAND MIXER-HEATSYS1 DEMAND OUTLET PIPE,HEATSYS1 DEMAND OUTLET NODE,Pipe Nodes
 Component Set,58,BRANCH,HEATSYS1 SUPPLY EQUIPMENT BRANCH,BOILER:HOTWATER,HEATSYS1 BOILER,HEATSYS1 PUMP-HEATSYS1 BOILERNODE,HEATSYS1 SUPPLY EQUIPMENT OUTLET NODE,Hot Water Nodes
 Component Set,59,BRANCH,HEATSYS1 SUPPLY EQUIPMENT BYPASS BRANCH,PIPE:ADIABATIC,HEATSYS1 SUPPLY EQUIPMENT BYPASS PIPE,HEATSYS1 SUPPLY EQUIP BYPASS INLET NODE,HEATSYS1 SUPPLY EQUIP BYPASS OUTLET NODE,Pipe Nodes
 Component Set,60,BRANCH,HEATSYS1 SUPPLY INLET BRANCH,PUMP:VARIABLESPEED,HEATSYS1 PUMP,HEATSYS1 SUPPLY INLET NODE,HEATSYS1 PUMP-HEATSYS1 BOILERNODEVIACONNECTOR,Water Nodes
 Component Set,61,BRANCH,HEATSYS1 SUPPLY OUTLET BRANCH,PIPE:ADIABATIC,HEATSYS1 SUPPLY OUTLET PIPE,HEATSYS1 SUPPLY MIXER-HEATSYS1 SUPPLY OUTLET PIPE,HEATSYS1 SUPPLY OUTLET NODE,Pipe Nodes
 Component Set,62,BRANCH,SWHSYS1 DEMAND BYPASS BRANCH,PIPE:ADIABATIC,SWHSYS1 DEMAND BYPASS PIPE,SWHSYS1 DEMAND BYPASS PIPE INLET NODE,SWHSYS1 DEMAND BYPASS PIPE OUTLET NODE,Pipe Nodes
 Component Set,63,BRANCH,SWHSYS1 DEMAND INLET BRANCH,PIPE:ADIABATIC,SWHSYS1 DEMAND INLET PIPE,SWHSYS1 DEMAND INLET NODE,SWHSYS1 DEMAND INLET PIPE-SWHSYS1 DEMAND MIXER,Pipe Nodes
 Component Set,64,BRANCH,SWHSYS1 DEMAND LOAD BRANCH 1,WATERUSE:CONNECTIONS,BATH_ZN_1_FLR_1 SHW_DEFAULT,BATH_ZN_1_FLR_1 SHW_DEFAULT WATER INLET NODE,BATH_ZN_1_FLR_1 SHW_DEFAULT WATER OUTLET NODE,DHW Nodes
 Component Set,65,BRANCH,SWHSYS1 DEMAND LOAD BRANCH 2,WATERUSE:CONNECTIONS,KITCHEN_ZN_1_FLR_1 SHW_DEFAULT,KITCHEN_ZN_1_FLR_1 SHW_DEFAULT WATER INLET NODE,KITCHEN_ZN_1_FLR_1 SHW_DEFAULT WATER OUTLET NODE,DHW Nodes
 Component Set,66,BRANCH,SWHSYS1 DEMAND OUTLET BRANCH,PIPE:ADIABATIC,SWHSYS1 DEMAND OUTLET PIPE,SWHSYS1 DEMAND MIXER-SWHSYS1 DEMAND OUTLET PIPE,SWHSYS1 DEMAND OUTLET NODE,Pipe Nodes
 Component Set,67,BRANCH,SWHSYS1 SUPPLY EQUIPMENT BRANCH,WATERHEATER:MIXED,SWHSYS1 WATER HEATER,SWHSYS1 PUMP-SWHSYS1 WATER HEATERNODE,SWHSYS1 SUPPLY EQUIPMENT OUTLET NODE,Use Side Water Nodes
 Component Set,68,BRANCH,SWHSYS1 SUPPLY EQUIPMENT BYPASS BRANCH,PIPE:ADIABATIC,SWHSYS1 SUPPLY EQUIPMENT BYPASS PIPE,SWHSYS1 SUPPLY EQUIP BYPASS INLET NODE,SWHSYS1 SUPPLY EQUIP BYPASS OUTLET NODE,Pipe Nodes
 Component Set,69,BRANCH,SWHSYS1 SUPPLY INLET BRANCH,PUMP:VARIABLESPEED,SWHSYS1 PUMP,SWHSYS1 SUPPLY INLET NODE,SWHSYS1 PUMP-SWHSYS1 WATER HEATERNODEVIACONNECTOR,Water Nodes
 Component Set,70,BRANCH,SWHSYS1 SUPPLY OUTLET BRANCH,PIPE:ADIABATIC,SWHSYS1 SUPPLY OUTLET PIPE,SWHSYS1 SUPPLY MIXER-SWHSYS1 SUPPLY OUTLET PIPE,SWHSYS1 SUPPLY OUTLET NODE,Pipe Nodes
 Component Set,71,ZONEHVAC:AIRDISTRIBUTIONUNIT,BATH_ZN_1_FLR_1 VAV BOX,AIRTERMINAL:SINGLEDUCT:VAV:REHEAT,BATH_ZN_1_FLR_1 VAV BOX COMPONENT,BATH_ZN_1_FLR_1 VAV BOX INLET NODE NAME,BATH_ZN_1_FLR_1 VAV BOX OUTLET NODE NAME,Air Nodes
 Component Set,72,ZONEHVAC:AIRDISTRIBUTIONUNIT,COMPUTER_CLASS_ZN_1_FLR_1 VAV BOX,AIRTERMINAL:SINGLEDUCT:VAV:REHEAT,COMPUTER_CLASS_ZN_1_FLR_1 VAV BOX COMPONENT,COMPUTER_CLASS_ZN_1_FLR_1 VAV BOX INLET NODE NAME,COMPUTER_CLASS_ZN_1_FLR_1 VAV BOX OUTLET NODE NAME,Air Nodes
 Component Set,73,ZONEHVAC:AIRDISTRIBUTIONUNIT,CORNER_CLASS_1_POD_1_ZN_1_FLR_1 VAV BOX,AIRTERMINAL:SINGLEDUCT:VAV:REHEAT,CORNER_CLASS_1_POD_1_ZN_1_FLR_1 VAV BOX COMPONENT,CORNER_CLASS_1_POD_1_ZN_1_FLR_1 VAV BOX INLET NODE NAME,CORNER_CLASS_1_POD_1_ZN_1_FLR_1 VAV BOX OUTLET NODE NAME,Air Nodes
 Component Set,74,ZONEHVAC:AIRDISTRIBUTIONUNIT,CORNER_CLASS_1_POD_2_ZN_1_FLR_1 VAV BOX,AIRTERMINAL:SINGLEDUCT:VAV:REHEAT,CORNER_CLASS_1_POD_2_ZN_1_FLR_1 VAV BOX COMPONENT,CORNER_CLASS_1_POD_2_ZN_1_FLR_1 VAV BOX INLET NODE NAME,CORNER_CLASS_1_POD_2_ZN_1_FLR_1 VAV BOX OUTLET NODE NAME,Air Nodes
 Component Set,75,ZONEHVAC:AIRDISTRIBUTIONUNIT,CORNER_CLASS_1_POD_3_ZN_1_FLR_1 VAV BOX,AIRTERMINAL:SINGLEDUCT:VAV:REHEAT,CORNER_CLASS_1_POD_3_ZN_1_FLR_1 VAV BOX COMPONENT,CORNER_CLASS_1_POD_3_ZN_1_FLR_1 VAV BOX INLET NODE NAME,CORNER_CLASS_1_POD_3_ZN_1_FLR_1 VAV BOX OUTLET NODE NAME,Air Nodes
 Component Set,76,ZONEHVAC:AIRDISTRIBUTIONUNIT,CORNER_CLASS_2_POD_1_ZN_1_FLR_1 VAV BOX,AIRTERMINAL:SINGLEDUCT:VAV:REHEAT,CORNER_CLASS_2_POD_1_ZN_1_FLR_1 VAV BOX COMPONENT,CORNER_CLASS_2_POD_1_ZN_1_FLR_1 VAV BOX INLET NODE NAME,CORNER_CLASS_2_POD_1_ZN_1_FLR_1 VAV BOX OUTLET NODE NAME,Air Nodes
 Component Set,77,ZONEHVAC:AIRDISTRIBUTIONUNIT,CORNER_CLASS_2_POD_2_ZN_1_FLR_1 VAV BOX,AIRTERMINAL:SINGLEDUCT:VAV:REHEAT,CORNER_CLASS_2_POD_2_ZN_1_FLR_1 VAV BOX COMPONENT,CORNER_CLASS_2_POD_2_ZN_1_FLR_1 VAV BOX INLET NODE NAME,CORNER_CLASS_2_POD_2_ZN_1_FLR_1 VAV BOX OUTLET NODE NAME,Air Nodes
 Component Set,78,ZONEHVAC:AIRDISTRIBUTIONUNIT,CORNER_CLASS_2_POD_3_ZN_1_FLR_1 VAV BOX,AIRTERMINAL:SINGLEDUCT:VAV:REHEAT,CORNER_CLASS_2_POD_3_ZN_1_FLR_1 VAV BOX COMPONENT,CORNER_CLASS_2_POD_3_ZN_1_FLR_1 VAV BOX INLET NODE NAME,CORNER_CLASS_2_POD_3_ZN_1_FLR_1 VAV BOX OUTLET NODE NAME,Air Nodes
 Component Set,79,ZONEHVAC:AIRDISTRIBUTIONUNIT,CORRIDOR_POD_1_ZN_1_FLR_1 VAV BOX,AIRTERMINAL:SINGLEDUCT:VAV:REHEAT,CORRIDOR_POD_1_ZN_1_FLR_1 VAV BOX COMPONENT,CORRIDOR_POD_1_ZN_1_FLR_1 VAV BOX INLET NODE NAME,CORRIDOR_POD_1_ZN_1_FLR_1 VAV BOX OUTLET NODE NAME,Air Nodes
 Component Set,80,ZONEHVAC:AIRDISTRIBUTIONUNIT,CORRIDOR_POD_2_ZN_1_FLR_1 VAV BOX,AIRTERMINAL:SINGLEDUCT:VAV:REHEAT,CORRIDOR_POD_2_ZN_1_FLR_1 VAV BOX COMPONENT,CORRIDOR_POD_2_ZN_1_FLR_1 VAV BOX INLET NODE NAME,CORRIDOR_POD_2_ZN_1_FLR_1 VAV BOX OUTLET NODE NAME,Air Nodes
 Component Set,81,ZONEHVAC:AIRDISTRIBUTIONUNIT,CORRIDOR_POD_3_ZN_1_FLR_1 VAV BOX,AIRTERMINAL:SINGLEDUCT:VAV:REHEAT,CORRIDOR_POD_3_ZN_1_FLR_1 VAV BOX COMPONENT,CORRIDOR_POD_3_ZN_1_FLR_1 VAV BOX INLET NODE NAME,CORRIDOR_POD_3_ZN_1_FLR_1 VAV BOX OUTLET NODE NAME,Air Nodes
 Component Set,82,ZONEHVAC:AIRDISTRIBUTIONUNIT,LIBRARY_MEDIA_CENTER_ZN_1_FLR_1 VAV BOX,AIRTERMINAL:SINGLEDUCT:VAV:REHEAT,LIBRARY_MEDIA_CENTER_ZN_1_FLR_1 VAV BOX COMPONENT,LIBRARY_MEDIA_CENTER_ZN_1_FLR_1 VAV BOX INLET NODE NAME,LIBRARY_MEDIA_CENTER_ZN_1_FLR_1 VAV BOX OUTLET NODE NAME,Air Nodes
 Component Set,83,ZONEHVAC:AIRDISTRIBUTIONUNIT,LOBBY_ZN_1_FLR_1 VAV BOX,AIRTERMINAL:SINGLEDUCT:VAV:REHEAT,LOBBY_ZN_1_FLR_1 VAV BOX COMPONENT,LOBBY_ZN_1_FLR_1 VAV BOX INLET NODE NAME,LOBBY_ZN_1_FLR_1 VAV BOX OUTLET NODE NAME,Air Nodes
 Component Set,84,ZONEHVAC:AIRDISTRIBUTIONUNIT,MAIN_CORRIDOR_ZN_1_FLR_1 VAV BOX,AIRTERMINAL:SINGLEDUCT:VAV:REHEAT,MAIN_CORRIDOR_ZN_1_FLR_1 VAV BOX COMPONENT,MAIN_CORRIDOR_ZN_1_FLR_1 VAV BOX INLET NODE NAME,MAIN_CORRIDOR_ZN_1_FLR_1 VAV BOX OUTLET NODE NAME,Air Nodes
 Component Set,85,ZONEHVAC:AIRDISTRIBUTIONUNIT,MECH_ZN_1_FLR_1 VAV BOX,AIRTERMINAL:SINGLEDUCT:VAV:REHEAT,MECH_ZN_1_FLR_1 VAV BOX COMPONENT,MECH_ZN_1_FLR_1 VAV BOX INLET NODE NAME,MECH_ZN_1_FLR_1 VAV BOX OUTLET NODE NAME,Air Nodes
 Component Set,86,ZONEHVAC:AIRDISTRIBUTIONUNIT,MULT_CLASS_1_POD_1_ZN_1_FLR_1 VAV BOX,AIRTERMINAL:SINGLEDUCT:VAV:REHEAT,MULT_CLASS_1_POD_1_ZN_1_FLR_1 VAV BOX COMPONENT,MULT_CLASS_1_POD_1_ZN_1_FLR_1 VAV BOX INLET NODE NAME,MULT_CLASS_1_POD_1_ZN_1_FLR_1 VAV BOX OUTLET NODE NAME,Air Nodes
 Component Set,87,ZONEHVAC:AIRDISTRIBUTIONUNIT,MULT_CLASS_1_POD_2_ZN_1_FLR_1 VAV BOX,AIRTERMINAL:SINGLEDUCT:VAV:REHEAT,MULT_CLASS_1_POD_2_ZN_1_FLR_1 VAV BOX COMPONENT,MULT_CLASS_1_POD_2_ZN_1_FLR_1 VAV BOX INLET NODE NAME,MULT_CLASS_1_POD_2_ZN_1_FLR_1 VAV BOX OUTLET NODE NAME,Air Nodes
 Component Set,88,ZONEHVAC:AIRDISTRIBUTIONUNIT,MULT_CLASS_1_POD_3_ZN_1_FLR_1 VAV BOX,AIRTERMINAL:SINGLEDUCT:VAV:REHEAT,MULT_CLASS_1_POD_3_ZN_1_FLR_1 VAV BOX COMPONENT,MULT_CLASS_1_POD_3_ZN_1_FLR_1 VAV BOX INLET NODE NAME,MULT_CLASS_1_POD_3_ZN_1_FLR_1 VAV BOX OUTLET NODE NAME,Air Nodes
 Component Set,89,ZONEHVAC:AIRDISTRIBUTIONUNIT,MULT_CLASS_2_POD_1_ZN_1_FLR_1 VAV BOX,AIRTERMINAL:SINGLEDUCT:VAV:REHEAT,MULT_CLASS_2_POD_1_ZN_1_FLR_1 VAV BOX COMPONENT,MULT_CLASS_2_POD_1_ZN_1_FLR_1 VAV BOX INLET NODE NAME,MULT_CLASS_2_POD_1_ZN_1_FLR_1 VAV BOX OUTLET NODE NAME,Air Nodes
 Component Set,90,ZONEHVAC:AIRDISTRIBUTIONUNIT,MULT_CLASS_2_POD_2_ZN_1_FLR_1 VAV BOX,AIRTERMINAL:SINGLEDUCT:VAV:REHEAT,MULT_CLASS_2_POD_2_ZN_1_FLR_1 VAV BOX COMPONENT,MULT_CLASS_2_POD_2_ZN_1_FLR_1 VAV BOX INLET NODE NAME,MULT_CLASS_2_POD_2_ZN_1_FLR_1 VAV BOX OUTLET NODE NAME,Air Nodes
 Component Set,91,ZONEHVAC:AIRDISTRIBUTIONUNIT,MULT_CLASS_2_POD_3_ZN_1_FLR_1 VAV BOX,AIRTERMINAL:SINGLEDUCT:VAV:REHEAT,MULT_CLASS_2_POD_3_ZN_1_FLR_1 VAV BOX COMPONENT,MULT_CLASS_2_POD_3_ZN_1_FLR_1 VAV BOX INLET NODE NAME,MULT_CLASS_2_POD_3_ZN_1_FLR_1 VAV BOX OUTLET NODE NAME,Air Nodes
 Component Set,92,ZONEHVAC:AIRDISTRIBUTIONUNIT,OFFICES_ZN_1_FLR_1 VAV BOX,AIRTERMINAL:SINGLEDUCT:VAV:REHEAT,OFFICES_ZN_1_FLR_1 VAV BOX COMPONENT,OFFICES_ZN_1_FLR_1 VAV BOX INLET NODE NAME,OFFICES_ZN_1_FLR_1 VAV BOX OUTLET NODE NAME,Air Nodes
 Component Set,93,ZONEHVAC:AIRDISTRIBUTIONUNIT,CAFETERIA_ZN_1_FLR_1 DIRECT AIR ADU,AIRTERMINAL:SINGLEDUCT:CONSTANTVOLUME:NOREHEAT,CAFETERIA_ZN_1_FLR_1 DIRECT AIR,CAFETERIA_ZN_1_FLR_1 DIRECT AIR INLET NODE NAME ATINLET,CAFETERIA_ZN_1_FLR_1 DIRECT AIR INLET NODE NAME,Air Nodes
 Component Set,94,ZONEHVAC:AIRDISTRIBUTIONUNIT,GYM_ZN_1_FLR_1 DIRECT AIR ADU,AIRTERMINAL:SINGLEDUCT:CONSTANTVOLUME:NOREHEAT,GYM_ZN_1_FLR_1 DIRECT AIR,GYM_ZN_1_FLR_1 DIRECT AIR INLET NODE NAME ATINLET,GYM_ZN_1_FLR_1 DIRECT AIR INLET NODE NAME,Air Nodes
 Component Set,95,ZONEHVAC:AIRDISTRIBUTIONUNIT,KITCHEN_ZN_1_FLR_1 DIRECT AIR ADU,AIRTERMINAL:SINGLEDUCT:CONSTANTVOLUME:NOREHEAT,KITCHEN_ZN_1_FLR_1 DIRECT AIR,KITCHEN_ZN_1_FLR_1 DIRECT AIR INLET NODE NAME ATINLET,KITCHEN_ZN_1_FLR_1 DIRECT AIR INLET NODE NAME,Air Nodes
 Component Set,96,AIRTERMINAL:SINGLEDUCT:VAV:REHEAT,BATH_ZN_1_FLR_1 VAV BOX COMPONENT,COIL:HEATING:WATER,BATH_ZN_1_FLR_1 VAV BOX REHEAT COIL,BATH_ZN_1_FLR_1 VAV BOX DAMPER NODE,BATH_ZN_1_FLR_1 VAV BOX OUTLET NODE NAME,Air Nodes
 Component Set,97,AIRTERMINAL:SINGLEDUCT:VAV:REHEAT,COMPUTER_CLASS_ZN_1_FLR_1 VAV BOX COMPONENT,COIL:HEATING:WATER,COMPUTER_CLASS_ZN_1_FLR_1 VAV BOX REHEAT COIL,COMPUTER_CLASS_ZN_1_FLR_1 VAV BOX DAMPER NODE,COMPUTER_CLASS_ZN_1_FLR_1 VAV BOX OUTLET NODE NAME,Air Nodes
 Component Set,98,AIRTERMINAL:SINGLEDUCT:VAV:REHEAT,CORNER_CLASS_1_POD_1_ZN_1_FLR_1 VAV BOX COMPONENT,COIL:HEATING:WATER,CORNER_CLASS_1_POD_1_ZN_1_FLR_1 VAV BOX REHEAT COIL,CORNER_CLASS_1_POD_1_ZN_1_FLR_1 VAV BOX DAMPER NODE,CORNER_CLASS_1_POD_1_ZN_1_FLR_1 VAV BOX OUTLET NODE NAME,Air Nodes
 Component Set,99,AIRTERMINAL:SINGLEDUCT:VAV:REHEAT,CORNER_CLASS_1_POD_2_ZN_1_FLR_1 VAV BOX COMPONENT,COIL:HEATING:WATER,CORNER_CLASS_1_POD_2_ZN_1_FLR_1 VAV BOX REHEAT COIL,CORNER_CLASS_1_POD_2_ZN_1_FLR_1 VAV BOX DAMPER NODE,CORNER_CLASS_1_POD_2_ZN_1_FLR_1 VAV BOX OUTLET NODE NAME,Air Nodes
 Component Set,100,AIRTERMINAL:SINGLEDUCT:VAV:REHEAT,CORNER_CLASS_1_POD_3_ZN_1_FLR_1 VAV BOX COMPONENT,COIL:HEATING:WATER,CORNER_CLASS_1_POD_3_ZN_1_FLR_1 VAV BOX REHEAT COIL,CORNER_CLASS_1_POD_3_ZN_1_FLR_1 VAV BOX DAMPER NODE,CORNER_CLASS_1_POD_3_ZN_1_FLR_1 VAV BOX OUTLET NODE NAME,Air Nodes
 Component Set,101,AIRTERMINAL:SINGLEDUCT:VAV:REHEAT,CORNER_CLASS_2_POD_1_ZN_1_FLR_1 VAV BOX COMPONENT,COIL:HEATING:WATER,CORNER_CLASS_2_POD_1_ZN_1_FLR_1 VAV BOX REHEAT COIL,CORNER_CLASS_2_POD_1_ZN_1_FLR_1 VAV BOX DAMPER NODE,CORNER_CLASS_2_POD_1_ZN_1_FLR_1 VAV BOX OUTLET NODE NAME,Air Nodes
 Component Set,102,AIRTERMINAL:SINGLEDUCT:VAV:REHEAT,CORNER_CLASS_2_POD_2_ZN_1_FLR_1 VAV BOX COMPONENT,COIL:HEATING:WATER,CORNER_CLASS_2_POD_2_ZN_1_FLR_1 VAV BOX REHEAT COIL,CORNER_CLASS_2_POD_2_ZN_1_FLR_1 VAV BOX DAMPER NODE,CORNER_CLASS_2_POD_2_ZN_1_FLR_1 VAV BOX OUTLET NODE NAME,Air Nodes
 Component Set,103,AIRTERMINAL:SINGLEDUCT:VAV:REHEAT,CORNER_CLASS_2_POD_3_ZN_1_FLR_1 VAV BOX COMPONENT,COIL:HEATING:WATER,CORNER_CLASS_2_POD_3_ZN_1_FLR_1 VAV BOX REHEAT COIL,CORNER_CLASS_2_POD_3_ZN_1_FLR_1 VAV BOX DAMPER NODE,CORNER_CLASS_2_POD_3_ZN_1_FLR_1 VAV BOX OUTLET NODE NAME,Air Nodes
 Component Set,104,AIRTERMINAL:SINGLEDUCT:VAV:REHEAT,CORRIDOR_POD_1_ZN_1_FLR_1 VAV BOX COMPONENT,COIL:HEATING:WATER,CORRIDOR_POD_1_ZN_1_FLR_1 VAV BOX REHEAT COIL,CORRIDOR_POD_1_ZN_1_FLR_1 VAV BOX DAMPER NODE,CORRIDOR_POD_1_ZN_1_FLR_1 VAV BOX OUTLET NODE NAME,Air Nodes
 Component Set,105,AIRTERMINAL:SINGLEDUCT:VAV:REHEAT,CORRIDOR_POD_2_ZN_1_FLR_1 VAV BOX COMPONENT,COIL:HEATING:WATER,CORRIDOR_POD_2_ZN_1_FLR_1 VAV BOX REHEAT COIL,CORRIDOR_POD_2_ZN_1_FLR_1 VAV BOX DAMPER NODE,CORRIDOR_POD_2_ZN_1_FLR_1 VAV BOX OUTLET NODE NAME,Air Nodes
 Component Set,106,AIRTERMINAL:SINGLEDUCT:VAV:REHEAT,CORRIDOR_POD_3_ZN_1_FLR_1 VAV BOX COMPONENT,COIL:HEATING:WATER,CORRIDOR_POD_3_ZN_1_FLR_1 VAV BOX REHEAT COIL,CORRIDOR_POD_3_ZN_1_FLR_1 VAV BOX DAMPER NODE,CORRIDOR_POD_3_ZN_1_FLR_1 VAV BOX OUTLET NODE NAME,Air Nodes
 Component Set,107,AIRTERMINAL:SINGLEDUCT:VAV:REHEAT,LIBRARY_MEDIA_CENTER_ZN_1_FLR_1 VAV BOX COMPONENT,COIL:HEATING:WATER,LIBRARY_MEDIA_CENTER_ZN_1_FLR_1 VAV BOX REHEAT COIL,LIBRARY_MEDIA_CENTER_ZN_1_FLR_1 VAV BOX DAMPER NODE,LIBRARY_MEDIA_CENTER_ZN_1_FLR_1 VAV BOX OUTLET NODE NAME,Air Nodes
 Component Set,108,AIRTERMINAL:SINGLEDUCT:VAV:REHEAT,LOBBY_ZN_1_FLR_1 VAV BOX COMPONENT,COIL:HEATING:WATER,LOBBY_ZN_1_FLR_1 VAV BOX REHEAT COIL,LOBBY_ZN_1_FLR_1 VAV BOX DAMPER NODE,LOBBY_ZN_1_FLR_1 VAV BOX OUTLET NODE NAME,Air Nodes
 Component Set,109,AIRTERMINAL:SINGLEDUCT:VAV:REHEAT,MAIN_CORRIDOR_ZN_1_FLR_1 VAV BOX COMPONENT,COIL:HEATING:WATER,MAIN_CORRIDOR_ZN_1_FLR_1 VAV BOX REHEAT COIL,MAIN_CORRIDOR_ZN_1_FLR_1 VAV BOX DAMPER NODE,MAIN_CORRIDOR_ZN_1_FLR_1 VAV BOX OUTLET NODE NAME,Air Nodes
 Component Set,110,AIRTERMINAL:SINGLEDUCT:VAV:REHEAT,MECH_ZN_1_FLR_1 VAV BOX COMPONENT,COIL:HEATING:WATER,MECH_ZN_1_FLR_1 VAV BOX REHEAT COIL,MECH_ZN_1_FLR_1 VAV BOX DAMPER NODE,MECH_ZN_1_FLR_1 VAV BOX OUTLET NODE NAME,Air Nodes
 Component Set,111,AIRTERMINAL:SINGLEDUCT:VAV:REHEAT,MULT_CLASS_1_POD_1_ZN_1_FLR_1 VAV BOX COMPONENT,COIL:HEATING:WATER,MULT_CLASS_1_POD_1_ZN_1_FLR_1 VAV BOX REHEAT COIL,MULT_CLASS_1_POD_1_ZN_1_FLR_1 VAV BOX DAMPER NODE,MULT_CLASS_1_POD_1_ZN_1_FLR_1 VAV BOX OUTLET NODE NAME,Air Nodes
 Component Set,112,AIRTERMINAL:SINGLEDUCT:VAV:REHEAT,MULT_CLASS_1_POD_2_ZN_1_FLR_1 VAV BOX COMPONENT,COIL:HEATING:WATER,MULT_CLASS_1_POD_2_ZN_1_FLR_1 VAV BOX REHEAT COIL,MULT_CLASS_1_POD_2_ZN_1_FLR_1 VAV BOX DAMPER NODE,MULT_CLASS_1_POD_2_ZN_1_FLR_1 VAV BOX OUTLET NODE NAME,Air Nodes
 Component Set,113,AIRTERMINAL:SINGLEDUCT:VAV:REHEAT,MULT_CLASS_1_POD_3_ZN_1_FLR_1 VAV BOX COMPONENT,COIL:HEATING:WATER,MULT_CLASS_1_POD_3_ZN_1_FLR_1 VAV BOX REHEAT COIL,MULT_CLASS_1_POD_3_ZN_1_FLR_1 VAV BOX DAMPER NODE,MULT_CLASS_1_POD_3_ZN_1_FLR_1 VAV BOX OUTLET NODE NAME,Air Nodes
 Component Set,114,AIRTERMINAL:SINGLEDUCT:VAV:REHEAT,MULT_CLASS_2_POD_1_ZN_1_FLR_1 VAV BOX COMPONENT,COIL:HEATING:WATER,MULT_CLASS_2_POD_1_ZN_1_FLR_1 VAV BOX REHEAT COIL,MULT_CLASS_2_POD_1_ZN_1_FLR_1 VAV BOX DAMPER NODE,MULT_CLASS_2_POD_1_ZN_1_FLR_1 VAV BOX OUTLET NODE NAME,Air Nodes
 Component Set,115,AIRTERMINAL:SINGLEDUCT:VAV:REHEAT,MULT_CLASS_2_POD_2_ZN_1_FLR_1 VAV BOX COMPONENT,COIL:HEATING:WATER,MULT_CLASS_2_POD_2_ZN_1_FLR_1 VAV BOX REHEAT COIL,MULT_CLASS_2_POD_2_ZN_1_FLR_1 VAV BOX DAMPER NODE,MULT_CLASS_2_POD_2_ZN_1_FLR_1 VAV BOX OUTLET NODE NAME,Air Nodes
 Component Set,116,AIRTERMINAL:SINGLEDUCT:VAV:REHEAT,MULT_CLASS_2_POD_3_ZN_1_FLR_1 VAV BOX COMPONENT,COIL:HEATING:WATER,MULT_CLASS_2_POD_3_ZN_1_FLR_1 VAV BOX REHEAT COIL,MULT_CLASS_2_POD_3_ZN_1_FLR_1 VAV BOX DAMPER NODE,MULT_CLASS_2_POD_3_ZN_1_FLR_1 VAV BOX OUTLET NODE NAME,Air Nodes
 Component Set,117,AIRTERMINAL:SINGLEDUCT:VAV:REHEAT,OFFICES_ZN_1_FLR_1 VAV BOX COMPONENT,COIL:HEATING:WATER,OFFICES_ZN_1_FLR_1 VAV BOX REHEAT COIL,OFFICES_ZN_1_FLR_1 VAV BOX DAMPER NODE,OFFICES_ZN_1_FLR_1 VAV BOX OUTLET NODE NAME,Air Nodes
[...]
 Non-Parent Node Connection,CORRIDOR_POD_1_ZN_1_FLR_1 VAV BOX INLET NODE NAME,AIRTERMINAL:SINGLEDUCT:VAV:REHEAT,CORRIDOR_POD_1_ZN_1_FLR_1 VAV BOX COMPONENT,Inlet,1
 Non-Parent Node Connection,CORRIDOR_POD_2_ZN_1_FLR_1 VAV BOX DAMPER NODE,AIRTERMINAL:SINGLEDUCT:VAV:REHEAT,CORRIDOR_POD_2_ZN_1_FLR_1 VAV BOX COMPONENT,Outlet,1
 Non-Parent Node Connection,CORRIDOR_POD_2_ZN_1_FLR_1 VAV BOX INLET NODE NAME,AIRTERMINAL:SINGLEDUCT:VAV:REHEAT,CORRIDOR_POD_2_ZN_1_FLR_1 VAV BOX COMPONENT,Inlet,1
 Non-Parent Node Connection,CORRIDOR_POD_3_ZN_1_FLR_1 VAV BOX DAMPER NODE,AIRTERMINAL:SINGLEDUCT:VAV:REHEAT,CORRIDOR_POD_3_ZN_1_FLR_1 VAV BOX COMPONENT,Outlet,1
 Non-Parent Node Connection,CORRIDOR_POD_3_ZN_1_FLR_1 VAV BOX INLET NODE NAME,AIRTERMINAL:SINGLEDUCT:VAV:REHEAT,CORRIDOR_POD_3_ZN_1_FLR_1 VAV BOX COMPONENT,Inlet,1
 Non-Parent Node Connection,LIBRARY_MEDIA_CENTER_ZN_1_FLR_1 VAV BOX DAMPER NODE,AIRTERMINAL:SINGLEDUCT:VAV:REHEAT,LIBRARY_MEDIA_CENTER_ZN_1_FLR_1 VAV BOX COMPONENT,Outlet,1
 Non-Parent Node Connection,LIBRARY_MEDIA_CENTER_ZN_1_FLR_1 VAV BOX INLET NODE NAME,AIRTERMINAL:SINGLEDUCT:VAV:REHEAT,LIBRARY_MEDIA_CENTER_ZN_1_FLR_1 VAV BOX COMPONENT,Inlet,1
 Non-Parent Node Connection,LOBBY_ZN_1_FLR_1 VAV BOX DAMPER NODE,AIRTERMINAL:SINGLEDUCT:VAV:REHEAT,LOBBY_ZN_1_FLR_1 VAV BOX COMPONENT,Outlet,1
 Non-Parent Node Connection,LOBBY_ZN_1_FLR_1 VAV BOX INLET NODE NAME,AIRTERMINAL:SINGLEDUCT:VAV:REHEAT,LOBBY_ZN_1_FLR_1 VAV BOX COMPONENT,Inlet,1
 Non-Parent Node Connection,MAIN_CORRIDOR_ZN_1_FLR_1 VAV BOX DAMPER NODE,AIRTERMINAL:SINGLEDUCT:VAV:REHEAT,MAIN_CORRIDOR_ZN_1_FLR_1 VAV BOX COMPONENT,Outlet,1
 Non-Parent Node Connection,MAIN_CORRIDOR_ZN_1_FLR_1 VAV BOX INLET NODE NAME,AIRTERMINAL:SINGLEDUCT:VAV:REHEAT,MAIN_CORRIDOR_ZN_1_FLR_1 VAV BOX COMPONENT,Inlet,1
 Non-Parent Node Connection,MECH_ZN_1_FLR_1 VAV BOX DAMPER NODE,AIRTERMINAL:SINGLEDUCT:VAV:REHEAT,MECH_ZN_1_FLR_1 VAV BOX COMPONENT,Outlet,1
 Non-Parent Node Connection,MECH_ZN_1_FLR_1 VAV BOX INLET NODE NAME,AIRTERMINAL:SINGLEDUCT:VAV:REHEAT,MECH_ZN_1_FLR_1 VAV BOX COMPONENT,Inlet,1
 Non-Parent Node Connection,MULT_CLASS_1_POD_1_ZN_1_FLR_1 VAV BOX DAMPER NODE,AIRTERMINAL:SINGLEDUCT:VAV:REHEAT,MULT_CLASS_1_POD_1_ZN_1_FLR_1 VAV BOX COMPONENT,Outlet,1
 Non-Parent Node Connection,MULT_CLASS_1_POD_1_ZN_1_FLR_1 VAV BOX INLET NODE NAME,AIRTERMINAL:SINGLEDUCT:VAV:REHEAT,MULT_CLASS_1_POD_1_ZN_1_FLR_1 VAV BOX COMPONENT,Inlet,1
 Non-Parent Node Connection,MULT_CLASS_1_POD_2_ZN_1_FLR_1 VAV BOX DAMPER NODE,AIRTERMINAL:SINGLEDUCT:VAV:REHEAT,MULT_CLASS_1_POD_2_ZN_1_FLR_1 VAV BOX COMPONENT,Outlet,1
 Non-Parent Node Connection,MULT_CLASS_1_POD_2_ZN_1_FLR_1 VAV BOX INLET NODE NAME,AIRTERMINAL:SINGLEDUCT:VAV:REHEAT,MULT_CLASS_1_POD_2_ZN_1_FLR_1 VAV BOX COMPONENT,Inlet,1
 Non-Parent Node Connection,MULT_CLASS_1_POD_3_ZN_1_FLR_1 VAV BOX DAMPER NODE,AIRTERMINAL:SINGLEDUCT:VAV:REHEAT,MULT_CLASS_1_POD_3_ZN_1_FLR_1 VAV BOX COMPONENT,Outlet,1
 Non-Parent Node Connection,MULT_CLASS_1_POD_3_ZN_1_FLR_1 VAV BOX INLET NODE NAME,AIRTERMINAL:SINGLEDUCT:VAV:REHEAT,MULT_CLASS_1_POD_3_ZN_1_FLR_1 VAV BOX COMPONENT,Inlet,1
 Non-Parent Node Connection,MULT_CLASS_2_POD_1_ZN_1_FLR_1 VAV BOX DAMPER NODE,AIRTERMINAL:SINGLEDUCT:VAV:REHEAT,MULT_CLASS_2_POD_1_ZN_1_FLR_1 VAV BOX COMPONENT,Outlet,1
 Non-Parent Node Connection,MULT_CLASS_2_POD_1_ZN_1_FLR_1 VAV BOX INLET NODE NAME,AIRTERMINAL:SINGLEDUCT:VAV:REHEAT,MULT_CLASS_2_POD_1_ZN_1_FLR_1 VAV BOX COMPONENT,Inlet,1
 Non-Parent Node Connection,MULT_CLASS_2_POD_2_ZN_1_FLR_1 VAV BOX DAMPER NODE,AIRTERMINAL:SINGLEDUCT:VAV:REHEAT,MULT_CLASS_2_POD_2_ZN_1_FLR_1 VAV BOX COMPONENT,Outlet,1
 Non-Parent Node Connection,MULT_CLASS_2_POD_2_ZN_1_FLR_1 VAV BOX INLET NODE NAME,AIRTERMINAL:SINGLEDUCT:VAV:REHEAT,MULT_CLASS_2_POD_2_ZN_1_FLR_1 VAV BOX COMPONENT,Inlet,1
 Non-Parent Node Connection,MULT_CLASS_2_POD_3_ZN_1_FLR_1 VAV BOX DAMPER NODE,AIRTERMINAL:SINGLEDUCT:VAV:REHEAT,MULT_CLASS_2_POD_3_ZN_1_FLR_1 VAV BOX COMPONENT,Outlet,1
 Non-Parent Node Connection,MULT_CLASS_2_POD_3_ZN_1_FLR_1 VAV BOX INLET NODE NAME,AIRTERMINAL:SINGLEDUCT:VAV:REHEAT,MULT_CLASS_2_POD_3_ZN_1_FLR_1 VAV BOX COMPONENT,Inlet,1
 Non-Parent Node Connection,OFFICES_ZN_1_FLR_1 VAV BOX DAMPER NODE,AIRTERMINAL:SINGLEDUCT:VAV:REHEAT,OFFICES_ZN_1_FLR_1 VAV BOX COMPONENT,Outlet,1
 Non-Parent Node Connection,OFFICES_ZN_1_FLR_1 VAV BOX INLET NODE NAME,AIRTERMINAL:SINGLEDUCT:VAV:REHEAT,OFFICES_ZN_1_FLR_1 VAV BOX COMPONENT,Inlet,1
 Non-Parent Node Connection,CAFETERIA_ZN_1_FLR_1 DIRECT AIR INLET NODE NAME ATINLET,AIRTERMINAL:SINGLEDUCT:CONSTANTVOLUME:NOREHEAT,CAFETERIA_ZN_1_FLR_1 DIRECT AIR,Inlet,1
 Non-Parent Node Connection,CAFETERIA_ZN_1_FLR_1 DIRECT AIR INLET NODE NAME,AIRTERMINAL:SINGLEDUCT:CONSTANTVOLUME:NOREHEAT,CAFETERIA_ZN_1_FLR_1 DIRECT AIR,Outlet,1
 Non-Parent Node Connection,GYM_ZN_1_FLR_1 DIRECT AIR INLET NODE NAME ATINLET,AIRTERMINAL:SINGLEDUCT:CONSTANTVOLUME:NOREHEAT,GYM_ZN_1_FLR_1 DIRECT AIR,Inlet,1
 Non-Parent Node Connection,GYM_ZN_1_FLR_1 DIRECT AIR INLET NODE NAME,AIRTERMINAL:SINGLEDUCT:CONSTANTVOLUME:NOREHEAT,GYM_ZN_1_FLR_1 DIRECT AIR,Outlet,1
 Non-Parent Node Connection,KITCHEN_ZN_1_FLR_1 DIRECT AIR INLET NODE NAME ATINLET,AIRTERMINAL:SINGLEDUCT:CONSTANTVOLUME:NOREHEAT,KITCHEN_ZN_1_FLR_1 DIRECT AIR,Inlet,1
 Non-Parent Node Connection,KITCHEN_ZN_1_FLR_1 DIRECT AIR INLET NODE NAME,AIRTERMINAL:SINGLEDUCT:CONSTANTVOLUME:NOREHEAT,KITCHEN_ZN_1_FLR_1 DIRECT AIR,Outlet,1
 Non-Parent Node Connection,VAV_OTHER_HEATC-VAV_OTHER_FANNODE,CONTROLLER:WATERCOIL,VAV_OTHER_HEATC_CONTROLLER,Sensor,1
 Non-Parent Node Connection,VAV_OTHER_HEATCDEMAND INLET NODE,CONTROLLER:WATERCOIL,VAV_OTHER_HEATC_CONTROLLER,Actuator,1
 Non-Parent Node Connection,VAV_POD_1_HEATC-VAV_POD_1_FANNODE,CONTROLLER:WATERCOIL,VAV_POD_1_HEATC_CONTROLLER,Sensor,1
 Non-Parent Node Connection,VAV_POD_1_HEATCDEMAND INLET NODE,CONTROLLER:WATERCOIL,VAV_POD_1_HEATC_CONTROLLER,Actuator,1
 Non-Parent Node Connection,VAV_POD_2_HEATC-VAV_POD_2_FANNODE,CONTROLLER:WATERCOIL,VAV_POD_2_HEATC_CONTROLLER,Sensor,1
 Non-Parent Node Connection,VAV_POD_2_HEATCDEMAND INLET NODE,CONTROLLER:WATERCOIL,VAV_POD_2_HEATC_CONTROLLER,Actuator,1
 Non-Parent Node Connection,VAV_POD_3_HEATC-VAV_POD_3_FANNODE,CONTROLLER:WATERCOIL,VAV_POD_3_HEATC_CONTROLLER,Sensor,1
 Non-Parent Node Connection,VAV_POD_3_HEATCDEMAND INLET NODE,CONTROLLER:WATERCOIL,VAV_POD_3_HEATC_CONTROLLER,Actuator,1
 Non-Parent Node Connection,PSZ-AC_1:6 ZONE EQUIPMENT OUTLET NODE,AIRLOOPHVAC:ZONEMIXER,PSZ-AC_1:6 RETURN AIR MIXER,Outlet,1
 Non-Parent Node Connection,KITCHEN_ZN_1_FLR_1 RETURN AIR NODE NAME,AIRLOOPHVAC:ZONEMIXER,PSZ-AC_1:6 RETURN AIR MIXER,Inlet,1
 Non-Parent Node Connection,PSZ-AC_2:5 ZONE EQUIPMENT OUTLET NODE,AIRLOOPHVAC:ZONEMIXER,PSZ-AC_2:5 RETURN AIR MIXER,Outlet,1
 Non-Parent Node Connection,GYM_ZN_1_FLR_1 RETURN AIR NODE NAME,AIRLOOPHVAC:ZONEMIXER,PSZ-AC_2:5 RETURN AIR MIXER,Inlet,1
 Non-Parent Node Connection,PSZ-AC_2:7 ZONE EQUIPMENT OUTLET NODE,AIRLOOPHVAC:ZONEMIXER,PSZ-AC_2:7 RETURN AIR MIXER,Outlet,1
 Non-Parent Node Connection,CAFETERIA_ZN_1_FLR_1 RETURN AIR NODE NAME,AIRLOOPHVAC:ZONEMIXER,PSZ-AC_2:7 RETURN AIR MIXER,Inlet,1
 Non-Parent Node Connection,VAV_OTHER ZONE EQUIPMENT OUTLET NODE,AIRLOOPHVAC:ZONEMIXER,VAV_OTHER RETURN AIR MIXER,Outlet,1
 Non-Parent Node Connection,COMPUTER_CLASS_ZN_1_FLR_1 RETURN AIR NODE NAME,AIRLOOPHVAC:ZONEMIXER,VAV_OTHER RETURN AIR MIXER,Inlet,1
 Non-Parent Node Connection,MAIN_CORRIDOR_ZN_1_FLR_1 RETURN AIR NODE NAME,AIRLOOPHVAC:ZONEMIXER,VAV_OTHER RETURN AIR MIXER,Inlet,1
 Non-Parent Node Connection,LOBBY_ZN_1_FLR_1 RETURN AIR NODE NAME,AIRLOOPHVAC:ZONEMIXER,VAV_OTHER RETURN AIR MIXER,Inlet,1
 Non-Parent Node Connection,MECH_ZN_1_FLR_1 RETURN AIR NODE NAME,AIRLOOPHVAC:ZONEMIXER,VAV_OTHER RETURN AIR MIXER,Inlet,1
 Non-Parent Node Connection,BATH_ZN_1_FLR_1 RETURN AIR NODE NAME,AIRLOOPHVAC:ZONEMIXER,VAV_OTHER RETURN AIR MIXER,Inlet,1
 Non-Parent Node Connection,OFFICES_ZN_1_FLR_1 RETURN AIR NODE NAME,AIRLOOPHVAC:ZONEMIXER,VAV_OTHER RETURN AIR MIXER,Inlet,1
 Non-Parent Node Connection,LIBRARY_MEDIA_CENTER_ZN_1_FLR_1 RETURN AIR NODE NAME,AIRLOOPHVAC:ZONEMIXER,VAV_OTHER RETURN AIR MIXER,Inlet,1
 Non-Parent Node Connection,VAV_POD_1 ZONE EQUIPMENT OUTLET NODE,AIRLOOPHVAC:ZONEMIXER,VAV_POD_1 RETURN AIR MIXER,Outlet,1
 Non-Parent Node Connection,CORNER_CLASS_1_POD_1_ZN_1_FLR_1 RETURN AIR NODE NAME,AIRLOOPHVAC:ZONEMIXER,VAV_POD_1 RETURN AIR MIXER,Inlet,1
 Non-Parent Node Connection,MULT_CLASS_1_POD_1_ZN_1_FLR_1 RETURN AIR NODE NAME,AIRLOOPHVAC:ZONEMIXER,VAV_POD_1 RETURN AIR MIXER,Inlet,1
 Non-Parent Node Connection,CORRIDOR_POD_1_ZN_1_FLR_1 RETURN AIR NODE NAME,AIRLOOPHVAC:ZONEMIXER,VAV_POD_1 RETURN AIR MIXER,Inlet,1
 Non-Parent Node Connection,CORNER_CLASS_2_POD_1_ZN_1_FLR_1 RETURN AIR NODE NAME,AIRLOOPHVAC:ZONEMIXER,VAV_POD_1 RETURN AIR MIXER,Inlet,1
 Non-Parent Node Connection,MULT_CLASS_2_POD_1_ZN_1_FLR_1 RETURN AIR NODE NAME,AIRLOOPHVAC:ZONEMIXER,VAV_POD_1 RETURN AIR MIXER,Inlet,1
 Non-Parent Node Connection,CORNER_CLASS_1_POD_2_ZN_1_FLR_1 RETURN AIR NODE NAME,AIRLOOPHVAC:ZONEMIXER,VAV_POD_1 RETURN AIR MIXER,Inlet,1
 Non-Parent Node Connection,VAV_POD_2 ZONE EQUIPMENT OUTLET NODE,AIRLOOPHVAC:ZONEMIXER,VAV_POD_2 RETURN AIR MIXER,Outlet,1
 Non-Parent Node Connection,MULT_CLASS_1_POD_2_ZN_1_FLR_1 RETURN AIR NODE NAME,AIRLOOPHVAC:ZONEMIXER,VAV_POD_2 RETURN AIR MIXER,Inlet,1
 Non-Parent Node Connection,CORRIDOR_POD_2_ZN_1_FLR_1 RETURN AIR NODE NAME,AIRLOOPHVAC:ZONEMIXER,VAV_POD_2 RETURN AIR MIXER,Inlet,1
 Non-Parent Node Connection,CORNER_CLASS_2_POD_2_ZN_1_FLR_1 RETURN AIR NODE NAME,AIRLOOPHVAC:ZONEMIXER,VAV_POD_2 RETURN AIR MIXER,Inlet,1
 Non-Parent Node Connection,MULT_CLASS_2_POD_2_ZN_1_FLR_1 RETURN AIR NODE NAME,AIRLOOPHVAC:ZONEMIXER,VAV_POD_2 RETURN AIR MIXER,Inlet,1
 Non-Parent Node Connection,VAV_POD_3 ZONE EQUIPMENT OUTLET NODE,AIRLOOPHVAC:ZONEMIXER,VAV_POD_3 RETURN AIR MIXER,Outlet,1
 Non-Parent Node Connection,CORNER_CLASS_1_POD_3_ZN_1_FLR_1 RETURN AIR NODE NAME,AIRLOOPHVAC:ZONEMIXER,VAV_POD_3 RETURN AIR MIXER,Inlet,1
 Non-Parent Node Connection,MULT_CLASS_1_POD_3_ZN_1_FLR_1 RETURN AIR NODE NAME,AIRLOOPHVAC:ZONEMIXER,VAV_POD_3 RETURN AIR MIXER,Inlet,1
 Non-Parent Node Connection,CORRIDOR_POD_3_ZN_1_FLR_1 RETURN AIR NODE NAME,AIRLOOPHVAC:ZONEMIXER,VAV_POD_3 RETURN AIR MIXER,Inlet,1
 Non-Parent Node Connection,CORNER_CLASS_2_POD_3_ZN_1_FLR_1 RETURN AIR NODE NAME,AIRLOOPHVAC:ZONEMIXER,VAV_POD_3 RETURN AIR MIXER,Inlet,1
 Non-Parent Node Connection,MULT_CLASS_2_POD_3_ZN_1_FLR_1 RETURN AIR NODE NAME,AIRLOOPHVAC:ZONEMIXER,VAV_POD_3 RETURN AIR MIXER,Inlet,1
 Non-Parent Node Connection,PSZ-AC_1:6_OA-PSZ-AC_1:6_COOLCNODE,OUTDOORAIR:MIXER,PSZ-AC_1:6_OAMIXING BOX,Outlet,1
 Non-Parent Node Connection,PSZ-AC_1:6_OAINLET NODE,OUTDOORAIR:MIXER,PSZ-AC_1:6_OAMIXING BOX,Inlet,1
 Non-Parent Node Connection,PSZ-AC_1:6_OARELIEF NODE,OUTDOORAIR:MIXER,PSZ-AC_1:6_OAMIXING BOX,ReliefAir,1
 Non-Parent Node Connection,PSZ-AC_1:6 SUPPLY EQUIPMENT INLET NODE,OUTDOORAIR:MIXER,PSZ-AC_1:6_OAMIXING BOX,Inlet,1
 Non-Parent Node Connection,PSZ-AC_2:5_OA-PSZ-AC_2:5_COOLCNODE,OUTDOORAIR:MIXER,PSZ-AC_2:5_OAMIXING BOX,Outlet,1
 Non-Parent Node Connection,PSZ-AC_2:5_OAINLET NODE,OUTDOORAIR:MIXER,PSZ-AC_2:5_OAMIXING BOX,Inlet,1
 Non-Parent Node Connection,PSZ-AC_2:5_OARELIEF NODE,OUTDOORAIR:MIXER,PSZ-AC_2:5_OAMIXING BOX,ReliefAir,1
 Non-Parent Node Connection,PSZ-AC_2:5 SUPPLY EQUIPMENT INLET NODE,OUTDOORAIR:MIXER,PSZ-AC_2:5_OAMIXING BOX,Inlet,1
 Non-Parent Node Connection,PSZ-AC_2:7_OA-PSZ-AC_2:7_COOLCNODE,OUTDOORAIR:MIXER,PSZ-AC_2:7_OAMIXING BOX,Outlet,1
 Non-Parent Node Connection,PSZ-AC_2:7_OAINLET NODE,OUTDOORAIR:MIXER,PSZ-AC_2:7_OAMIXING BOX,Inlet,1
 Non-Parent Node Connection,PSZ-AC_2:7_OARELIEF NODE,OUTDOORAIR:MIXER,PSZ-AC_2:7_OAMIXING BOX,ReliefAir,1
 Non-Parent Node Connection,PSZ-AC_2:7 SUPPLY EQUIPMENT INLET NODE,OUTDOORAIR:MIXER,PSZ-AC_2:7_OAMIXING BOX,Inlet,1
 Non-Parent Node Connection,VAV_OTHER_OA-VAV_OTHER_COOLCNODE,OUTDOORAIR:MIXER,VAV_OTHER_OAMIXING BOX,Outlet,1
 Non-Parent Node Connection,VAV_OTHER_OAINLET NODE,OUTDOORAIR:MIXER,VAV_OTHER_OAMIXING BOX,Inlet,1
 Non-Parent Node Connection,VAV_OTHER_OARELIEF NODE,OUTDOORAIR:MIXER,VAV_OTHER_OAMIXING BOX,ReliefAir,1
 Non-Parent Node Connection,VAV_OTHER SUPPLY EQUIPMENT INLET NODE,OUTDOORAIR:MIXER,VAV_OTHER_OAMIXING BOX,Inlet,1
 Non-Parent Node Connection,VAV_POD_1_OA-VAV_POD_1_COOLCNODE,OUTDOORAIR:MIXER,VAV_POD_1_OAMIXING BOX,Outlet,1
 Non-Parent Node Connection,VAV_POD_1_OAINLET NODE,OUTDOORAIR:MIXER,VAV_POD_1_OAMIXING BOX,Inlet,1
 Non-Parent Node Connection,VAV_POD_1_OARELIEF NODE,OUTDOORAIR:MIXER,VAV_POD_1_OAMIXING BOX,ReliefAir,1
 Non-Parent Node Connection,VAV_POD_1 SUPPLY EQUIPMENT INLET NODE,OUTDOORAIR:MIXER,VAV_POD_1_OAMIXING BOX,Inlet,1
 Non-Parent Node Connection,VAV_POD_2_OA-VAV_POD_2_COOLCNODE,OUTDOORAIR:MIXER,VAV_POD_2_OAMIXING BOX,Outlet,1
 Non-Parent Node Connection,VAV_POD_2_OAINLET NODE,OUTDOORAIR:MIXER,VAV_POD_2_OAMIXING BOX,Inlet,1
 Non-Parent Node Connection,VAV_POD_2_OARELIEF NODE,OUTDOORAIR:MIXER,VAV_POD_2_OAMIXING BOX,ReliefAir,1
 Non-Parent Node Connection,VAV_POD_2 SUPPLY EQUIPMENT INLET NODE,OUTDOORAIR:MIXER,VAV_POD_2_OAMIXING BOX,Inlet,1
 Non-Parent Node Connection,VAV_POD_3_OA-VAV_POD_3_COOLCNODE,OUTDOORAIR:MIXER,VAV_POD_3_OAMIXING BOX,Outlet,1
 Non-Parent Node Connection,VAV_POD_3_OAINLET NODE,OUTDOORAIR:MIXER,VAV_POD_3_OAMIXING BOX,Inlet,1
 Non-Parent Node Connection,VAV_POD_3_OARELIEF NODE,OUTDOORAIR:MIXER,VAV_POD_3_OAMIXING BOX,ReliefAir,1
 Non-Parent Node Connection,VAV_POD_3 SUPPLY EQUIPMENT INLET NODE,OUTDOORAIR:MIXER,VAV_POD_3_OAMIXING BOX,Inlet,1
 Non-Parent Node Connection,PSZ-AC_1:6_OA-PSZ-AC_1:6_COOLCNODE,CONTROLLER:OUTDOORAIR,PSZ-AC_1:6_OA_CONTROLLER,Sensor,1
 Non-Parent Node Connection,PSZ-AC_1:6_OAINLET NODE,CONTROLLER:OUTDOORAIR,PSZ-AC_1:6_OA_CONTROLLER,Actuator,1
 Non-Parent Node Connection,PSZ-AC_1:6_OARELIEF NODE,CONTROLLER:OUTDOORAIR,PSZ-AC_1:6_OA_CONTROLLER,Actuator,1
 Non-Parent Node Connection,PSZ-AC_1:6 SUPPLY EQUIPMENT INLET NODE,CONTROLLER:OUTDOORAIR,PSZ-AC_1:6_OA_CONTROLLER,Sensor,1
 Non-Parent Node Connection,PSZ-AC_2:5_OA-PSZ-AC_2:5_COOLCNODE,CONTROLLER:OUTDOORAIR,PSZ-AC_2:5_OA_CONTROLLER,Sensor,1
 Non-Parent Node Connection,PSZ-AC_2:5_OAINLET NODE,CONTROLLER:OUTDOORAIR,PSZ-AC_2:5_OA_CONTROLLER,Actuator,1
 Non-Parent Node Connection,PSZ-AC_2:5_OARELIEF NODE,CONTROLLER:OUTDOORAIR,PSZ-AC_2:5_OA_CONTROLLER,Actuator,1
 Non-Parent Node Connection,PSZ-AC_2:5 SUPPLY EQUIPMENT INLET NODE,CONTROLLER:OUTDOORAIR,PSZ-AC_2:5_OA_CONTROLLER,Sensor,1
 Non-Parent Node Connection,PSZ-AC_2:7_OA-PSZ-AC_2:7_COOLCNODE,CONTROLLER:OUTDOORAIR,PSZ-AC_2:7_OA_CONTROLLER,Sensor,1
 Non-Parent Node Connection,PSZ-AC_2:7_OAINLET NODE,CONTROLLER:OUTDOORAIR,PSZ-AC_2:7_OA_CONTROLLER,Actuator,1
 Non-Parent Node Connection,PSZ-AC_2:7_OARELIEF NODE,CONTROLLER:OUTDOORAIR,PSZ-AC_2:7_OA_CONTROLLER,Actuator,1
 Non-Parent Node Connection,PSZ-AC_2:7 SUPPLY EQUIPMENT INLET NODE,CONTROLLER:OUTDOORAIR,PSZ-AC_2:7_OA_CONTROLLER,Sensor,1
 Non-Parent Node Connection,VAV_OTHER_OA-VAV_OTHER_COOLCNODE,CONTROLLER:OUTDOORAIR,VAV_OTHER_OA_CONTROLLER,Sensor,1
 Non-Parent Node Connection,VAV_OTHER_OAINLET NODE,CONTROLLER:OUTDOORAIR,VAV_OTHER_OA_CONTROLLER,Actuator,1
 Non-Parent Node Connection,VAV_OTHER_OARELIEF NODE,CONTROLLER:OUTDOORAIR,VAV_OTHER_OA_CONTROLLER,Actuator,1
 Non-Parent Node Connection,VAV_OTHER SUPPLY EQUIPMENT INLET NODE,CONTROLLER:OUTDOORAIR,VAV_OTHER_OA_CONTROLLER,Sensor,1
 Non-Parent Node Connection,VAV_POD_1_OA-VAV_POD_1_COOLCNODE,CONTROLLER:OUTDOORAIR,VAV_POD_1_OA_CONTROLLER,Sensor,1
 Non-Parent Node Connection,VAV_POD_1_OAINLET NODE,CONTROLLER:OUTDOORAIR,VAV_POD_1_OA_CONTROLLER,Actuator,1
 Non-Parent Node Connection,VAV_POD_1_OARELIEF NODE,CONTROLLER:OUTDOORAIR,VAV_POD_1_OA_CONTROLLER,Actuator,1
 Non-Parent Node Connection,VAV_POD_1 SUPPLY EQUIPMENT INLET NODE,CONTROLLER:OUTDOORAIR,VAV_POD_1_OA_CONTROLLER,Sensor,1
 Non-Parent Node Connection,VAV_POD_2_OA-VAV_POD_2_COOLCNODE,CONTROLLER:OUTDOORAIR,VAV_POD_2_OA_CONTROLLER,Sensor,1
 Non-Parent Node Connection,VAV_POD_2_OAINLET NODE,CONTROLLER:OUTDOORAIR,VAV_POD_2_OA_CONTROLLER,Actuator,1
 Non-Parent Node Connection,VAV_POD_2_OARELIEF NODE,CONTROLLER:OUTDOORAIR,VAV_POD_2_OA_CONTROLLER,Actuator,1
 Non-Parent Node Connection,VAV_POD_2 SUPPLY EQUIPMENT INLET NODE,CONTROLLER:OUTDOORAIR,VAV_POD_2_OA_CONTROLLER,Sensor,1
 Non-Parent Node Connection,VAV_POD_3_OA-VAV_POD_3_COOLCNODE,CONTROLLER:OUTDOORAIR,VAV_POD_3_OA_CONTROLLER,Sensor,1
 Non-Parent Node Connection,VAV_POD_3_OAINLET NODE,CONTROLLER:OUTDOORAIR,VAV_POD_3_OA_CONTROLLER,Actuator,1
 Non-Parent Node Connection,VAV_POD_3_OARELIEF NODE,CONTROLLER:OUTDOORAIR,VAV_POD_3_OA_CONTROLLER,Actuator,1
 Non-Parent Node Connection,VAV_POD_3 SUPPLY EQUIPMENT INLET NODE,CONTROLLER:OUTDOORAIR,VAV_POD_3_OA_CONTROLLER,Sensor,1
 Non-Parent Node Connection,PSZ-AC_1:6_OA-PSZ-AC_1:6_COOLCNODE,COIL:COOLING:DX:SINGLESPEED,PSZ-AC_1:6_COOLC DXCOIL,Inlet,1
 Non-Parent Node Connection,PSZ-AC_1:6_COOLC-PSZ-AC_1:6_HEATCNODE,COIL:COOLING:DX:SINGLESPEED,PSZ-AC_1:6_COOLC DXCOIL,Outlet,1
 Non-Parent Node Connection,PSZ-AC_2:5_OA-PSZ-AC_2:5_COOLCNODE,COIL:COOLING:DX:SINGLESPEED,PSZ-AC_2:5_COOLC DXCOIL,Inlet,1
 Non-Parent Node Connection,PSZ-AC_2:5_COOLC-PSZ-AC_2:5_HEATCNODE,COIL:COOLING:DX:SINGLESPEED,PSZ-AC_2:5_COOLC DXCOIL,Outlet,1
 Non-Parent Node Connection,PSZ-AC_2:7_OA-PSZ-AC_2:7_COOLCNODE,COIL:COOLING:DX:TWOSPEED,PSZ-AC_2:7_COOLC DXCOIL,Inlet,1
 Non-Parent Node Connection,PSZ-AC_2:7_COOLC-PSZ-AC_2:7_HEATCNODE,COIL:COOLING:DX:TWOSPEED,PSZ-AC_2:7_COOLC DXCOIL,Outlet,1
 Non-Parent Node Connection,VAV_OTHER_OA-VAV_OTHER_COOLCNODE,COIL:COOLING:DX:TWOSPEED,VAV_OTHER_COOLC DXCOIL,Inlet,1
 Non-Parent Node Connection,VAV_OTHER_COOLC-VAV_OTHER_HEATCNODE,COIL:COOLING:DX:TWOSPEED,VAV_OTHER_COOLC DXCOIL,Outlet,1
 Non-Parent Node Connection,VAV_POD_1_OA-VAV_POD_1_COOLCNODE,COIL:COOLING:DX:TWOSPEED,VAV_POD_1_COOLC DXCOIL,Inlet,1
 Non-Parent Node Connection,VAV_POD_1_COOLC-VAV_POD_1_HEATCNODE,COIL:COOLING:DX:TWOSPEED,VAV_POD_1_COOLC DXCOIL,Outlet,1
 Non-Parent Node Connection,VAV_POD_2_OA-VAV_POD_2_COOLCNODE,COIL:COOLING:DX:TWOSPEED,VAV_POD_2_COOLC DXCOIL,Inlet,1
 Non-Parent Node Connection,VAV_POD_2_COOLC-VAV_POD_2_HEATCNODE,COIL:COOLING:DX:TWOSPEED,VAV_POD_2_COOLC DXCOIL,Outlet,1
 Non-Parent Node Connection,VAV_POD_3_OA-VAV_POD_3_COOLCNODE,COIL:COOLING:DX:TWOSPEED,VAV_POD_3_COOLC DXCOIL,Inlet,1
 Non-Parent Node Connection,VAV_POD_3_COOLC-VAV_POD_3_HEATCNODE,COIL:COOLING:DX:TWOSPEED,VAV_POD_3_COOLC DXCOIL,Outlet,1
 Non-Parent Node Connection,PSZ-AC_1:6_COOLC-PSZ-AC_1:6_HEATCNODE,COIL:HEATING:ELECTRIC,PSZ-AC_1:6_HEATC,Inlet,1
 Non-Parent Node Connection,PSZ-AC_1:6_HEATC-PSZ-AC_1:6_FANNODE,COIL:HEATING:ELECTRIC,PSZ-AC_1:6_HEATC,Outlet,1
 Non-Parent Node Connection,PSZ-AC_1:6_HEATC-PSZ-AC_1:6_FANNODE,COIL:HEATING:ELECTRIC,PSZ-AC_1:6_HEATC,Sensor,1
 Non-Parent Node Connection,PSZ-AC_2:5_COOLC-PSZ-AC_2:5_HEATCNODE,COIL:HEATING:ELECTRIC,PSZ-AC_2:5_HEATC,Inlet,1
 Non-Parent Node Connection,PSZ-AC_2:5_HEATC-PSZ-AC_2:5_FANNODE,COIL:HEATING:ELECTRIC,PSZ-AC_2:5_HEATC,Outlet,1
 Non-Parent Node Connection,PSZ-AC_2:5_HEATC-PSZ-AC_2:5_FANNODE,COIL:HEATING:ELECTRIC,PSZ-AC_2:5_HEATC,Sensor,1
 Non-Parent Node Connection,PSZ-AC_2:7_COOLC-PSZ-AC_2:7_HEATCNODE,COIL:HEATING:ELECTRIC,PSZ-AC_2:7_HEATC,Inlet,1
 Non-Parent Node Connection,PSZ-AC_2:7_HEATC-PSZ-AC_2:7_FANNODE,COIL:HEATING:ELECTRIC,PSZ-AC_2:7_HEATC,Outlet,1
 Non-Parent Node Connection,PSZ-AC_2:7_HEATC-PSZ-AC_2:7_FANNODE,COIL:HEATING:ELECTRIC,PSZ-AC_2:7_HEATC,Sensor,1
 Non-Parent Node Connection,HEATSYS1 SUPPLY INLET NODE,PUMP:VARIABLESPEED,HEATSYS1 PUMP,Inlet,1
 Non-Parent Node Connection,HEATSYS1 PUMP-HEATSYS1 BOILERNODEVIACONNECTOR,PUMP:VARIABLESPEED,HEATSYS1 PUMP,Outlet,1
 Non-Parent Node Connection,SWHSYS1 SUPPLY INLET NODE,PUMP:VARIABLESPEED,SWHSYS1 PUMP,Inlet,1
 Non-Parent Node Connection,SWHSYS1 PUMP-SWHSYS1 WATER HEATERNODEVIACONNECTOR,PUMP:VARIABLESPEED,SWHSYS1 PUMP,Outlet,1
