Program Version,EnergyPlus, Version 9.3.0-60e3a1f2d5 (No OpenGL), YMD=2022.07.11 20:03
! <Version>, Version ID
 Version, 9.3
! <Timesteps per Hour>, #TimeSteps, Minutes per TimeStep {minutes}
 Timesteps per Hour, 12,  5
! <System Convergence Limits>, Minimum System TimeStep {minutes}, Max HVAC Iterations, Minimum Plant Iterations, Maximum Plant Iterations
 System Convergence Limits, 2, 25, 2, 8
! <Simulation Control>, Do Zone Sizing, Do System Sizing, Do Plant Sizing, Do Design Days, Do Weather Simulation, Do HVAC Sizing Simulation
 Simulation Control, Yes, Yes, Yes, No, Yes, No
! <Performance Precision Tradeoffs>, Use Coil Direct Simulation, Zone Radiant Exchange Algorithm, Override Mode, Number of Timestep In Hour, Force Euler Method, Minimum Number of Warmup Days, Force Suppress All Begin Environment Resets, MaxZoneTempDiff
 Performance Precision Tradeoffs, No, ScriptF, Normal, 12, No, 1, No, 0.300
! <Output Reporting Tolerances>, Tolerance for Time Heating Setpoint Not Met, Tolerance for Zone Cooling Setpoint Not Met Time
 Output Reporting Tolerances, 0.200, 0.200, 
! <Site:GroundTemperature:BuildingSurface>,Jan{C},Feb{C},Mar{C},Apr{C},May{C},Jun{C},Jul{C},Aug{C},Sep{C},Oct{C},Nov{C},Dec{C}
 Site:GroundTemperature:BuildingSurface,  19.53,  19.50,  19.54,  19.60,  20.00,  21.64,  22.23,  22.38,  21.45,  20.12,  19.80,  19.63
! <Site:GroundTemperature:FCfactorMethod>,Jan{C},Feb{C},Mar{C},Apr{C},May{C},Jun{C},Jul{C},Aug{C},Sep{C},Oct{C},Nov{C},Dec{C}
 Site:GroundTemperature:FCfactorMethod,  12.13,  11.32,  12.76,  15.01,  20.91,  25.46,  28.53,  29.46,  27.87,  24.34,  19.62,  15.24
! <Site:GroundTemperature:Shallow>,Jan{C},Feb{C},Mar{C},Apr{C},May{C},Jun{C},Jul{C},Aug{C},Sep{C},Oct{C},Nov{C},Dec{C}
 Site:GroundTemperature:Shallow,  13.00,  13.00,  13.00,  13.00,  13.00,  13.00,  13.00,  13.00,  13.00,  13.00,  13.00,  13.00
! <Site:GroundTemperature:Deep>,Jan{C},Feb{C},Mar{C},Apr{C},May{C},Jun{C},Jul{C},Aug{C},Sep{C},Oct{C},Nov{C},Dec{C}
 Site:GroundTemperature:Deep,  16.00,  16.00,  16.00,  16.00,  16.00,  16.00,  16.00,  16.00,  16.00,  16.00,  16.00,  16.00
! <Site:GroundReflectance>,Jan{dimensionless},Feb{dimensionless},Mar{dimensionless},Apr{dimensionless},May{dimensionless},Jun{dimensionless},Jul{dimensionless},Aug{dimensionless},Sep{dimensionless},Oct{dimensionless},Nov{dimensionless},Dec{dimensionless}
 Site:GroundReflectance,  0.20,  0.20,  0.20,  0.20,  0.20,  0.20,  0.20,  0.20,  0.20,  0.20,  0.20,  0.20
! <Site:GroundReflectance:SnowModifier>, Normal, Daylighting {dimensionless}
 Site:GroundReflectance:SnowModifier,   1.000,   1.000
! <Site:GroundReflectance:Snow>,Jan{dimensionless},Feb{dimensionless},Mar{dimensionless},Apr{dimensionless},May{dimensionless},Jun{dimensionless},Jul{dimensionless},Aug{dimensionless},Sep{dimensionless},Oct{dimensionless},Nov{dimensionless},Dec{dimensionless}
 Site:GroundReflectance:Snow,  0.20,  0.20,  0.20,  0.20,  0.20,  0.20,  0.20,  0.20,  0.20,  0.20,  0.20,  0.20
! <Site:GroundReflectance:Snow:Daylighting>,Jan{dimensionless},Feb{dimensionless},Mar{dimensionless},Apr{dimensionless},May{dimensionless},Jun{dimensionless},Jul{dimensionless},Aug{dimensionless},Sep{dimensionless},Oct{dimensionless},Nov{dimensionless},Dec{dimensionless}
 Site:GroundReflectance:Snow:Daylighting,  0.20,  0.20,  0.20,  0.20,  0.20,  0.20,  0.20,  0.20,  0.20,  0.20,  0.20,  0.20
! <Environment:Weather Station>,Wind Sensor Height Above Ground {m},Wind Speed Profile Exponent {},Wind Speed Profile Boundary Layer Thickness {m},Air Temperature Sensor Height Above Ground {m},Wind Speed Modifier Coefficient-Internal,Temperature Modifier Coefficient-Internal
Environment:Weather Station,10.000,0.140,270.000,1.500,1.586,9.750E-003
! <Site:Location>, Location Name, Latitude {N+/S- Deg}, Longitude {E+/W- Deg},  Time Zone Number {GMT+/-}, Elevation {m},  Standard Pressure at Elevation {Pa}, Standard RhoAir at Elevation
Site:Location,Tucson International Ap AZ USA TMY3 WMO#=722740,32.13,-110.95,-7.00,777.00,92332,1.0974
! <Site Water Mains Temperature Information>,Calculation Method{},Water Mains Temperature Schedule Name{},Annual Average Outdoor Air Temperature{C},Maximum Difference In Monthly Average Outdoor Air Temperatures{deltaC},Fixed Default Water Mains Temperature{C}
Site Water Mains Temperature Information,Correlation,NA,9.69,28.10,NA
! <Building Information>, Building Name,North Axis {deg},Terrain,  Loads Convergence Tolerance Value,Temperature Convergence Tolerance Value,  Solar Distribution,Maximum Number of Warmup Days,Minimum Number of Warmup Days
 Building Information,Ref Bldg Primary School New2004_v1.3_5.0,0.000,City,4.00000E-002,0.20000,FullInteriorAndExterior,25,6
! <Inside Convection Algorithm>, Algorithm {Simple | TARP | CeilingDiffuser | AdaptiveConvectionAlgorithm}
Inside Convection Algorithm,TARP
! <Outside Convection Algorithm>, Algorithm {SimpleCombined | TARP | MoWitt | DOE-2 | AdaptiveConvectionAlgorithm}
Outside Convection Algorithm,DOE-2
! <Sky Radiance Distribution>, Value {Anisotropic}
Sky Radiance Distribution,Anisotropic
! <Zone Air Solution Algorithm>, Value {ThirdOrderBackwardDifference | AnalyticalSolution | EulerMethod}
 Zone Air Solution Algorithm, AnalyticalSolution
! <Zone Air Carbon Dioxide Balance Simulation>, Simulation {Yes/No}, Carbon Dioxide Concentration
 Zone Air Carbon Dioxide Balance Simulation, No,N/A
! <Zone Air Generic Contaminant Balance Simulation>, Simulation {Yes/No}, Generic Contaminant Concentration
 Zone Air Generic Contaminant Balance Simulation, No,N/A
! <Zone Air Mass Flow Balance Simulation>, Enforce Mass Balance, Adjust Zone Mixing, Adjust Zone Infiltration {AddInfiltration | AdjustInfiltration | None}, Infiltration Zones {MixingSourceZonesOnly | AllZones}
 Zone Air Mass Flow Balance Simulation, No,N/A,N/A,N/A
! <HVACSystemRootFindingAlgorithm>, Value {RegulaFalsi | Bisection | BisectionThenRegulaFalsi | RegulaFalsiThenBisection}
 HVACSystemRootFindingAlgorithm, RegulaFalsi
! <Environment:Site Atmospheric Variation>,Wind Speed Profile Exponent {},Wind Speed Profile Boundary Layer Thickness {m},Air Temperature Gradient Coefficient {K/m}
Environment:Site Atmospheric Variation,0.330,460.000,6.500000E-003
! <Surface Geometry>,Starting Corner,Vertex Input Direction,Coordinate System,Daylight Reference Point Coordinate System,Rectangular (Simple) Surface Coordinate System
 Surface Geometry,UpperLeftCorner,Counterclockwise,RelativeCoordinateSystem,RelativeCoordinateSystem,RelativeToZoneOrigin
! <Surface Heat Transfer Algorithm>, Value {CTF - ConductionTransferFunction | EMPD - MoisturePenetrationDepthConductionTransferFunction | CondFD - ConductionFiniteDifference | HAMT - CombinedHeatAndMoistureFiniteElement} - Description,Inside Surface Max Temperature Limit{C}, Surface Convection Coefficient Lower Limit {W/m2-K}, Surface Convection Coefficient Upper Limit {W/m2-K}
Surface Heat Transfer Algorithm, CTF - ConductionTransferFunction,200,0.10,1000.0
! <Shading Summary>, Number of Fixed Detached Shades, Number of Building Detached Shades, Number of Attached Shades
 Shading Summary,0,0,0
! <Zone Summary>, Number of Zones, Number of Zone Surfaces, Number of SubSurfaces
 Zone Summary,25,238,42
! <Zone Information>,Zone Name,North Axis {deg},Origin X-Coordinate {m},Origin Y-Coordinate {m},Origin Z-Coordinate {m},Centroid X-Coordinate {m},Centroid Y-Coordinate {m},Centroid Z-Coordinate {m},Type,Zone Multiplier,Zone List Multiplier,Minimum X {m},Maximum X {m},Minimum Y {m},Maximum Y {m},Minimum Z {m},Maximum Z {m},Ceiling Height {m},Volume {m3},Zone Inside Convection Algorithm {Simple-Detailed-CeilingDiffuser-TrombeWall},Zone Outside Convection Algorithm {Simple-Detailed-Tarp-MoWitt-DOE-2-BLAST}, Floor Area {m2},Exterior Gross Wall Area {m2},Exterior Net Wall Area {m2},Exterior Window Area {m2}, Number of Surfaces, Number of SubSurfaces, Number of Shading SubSurfaces,  Part of Total Building Area
 Zone Information, BATH_ZN_1_FLR_1,0.0,0.00,51.00,0.00,9.50,56.00,2.00,1,1,1,0.00,19.00,51.00,61.00,0.00,4.00,4.00,760.00,TARP,DOE-2,190.00,40.00,26.00,14.00,7,1,0,Yes
 Zone Information, CAFETERIA_ZN_1_FLR_1,0.0,19.00,46.00,0.00,29.50,53.50,2.00,1,1,1,19.00,40.00,46.00,61.00,0.00,4.00,4.00,1260.00,TARP,DOE-2,315.00,144.00,93.60,50.40,7,2,0,Yes
 Zone Information, COMPUTER_CLASS_ZN_1_FLR_1,0.0,-18.00,73.00,0.00,-9.00,77.50,2.00,1,1,1,-18.00,0.00,73.00,82.00,0.00,4.00,4.00,648.00,TARP,DOE-2,162.00,72.00,46.80,25.20,6,1,0,Yes
 Zone Information, CORNER_CLASS_1_POD_1_ZN_1_FLR_1,0.0,-64.00,0.00,0.00,-58.50,4.50,2.00,1,1,1,-64.00,-53.00,0.00,9.00,0.00,4.00,4.00,396.00,TARP,DOE-2,99.00,80.00,52.00,28.00,6,2,0,Yes
 Zone Information, CORNER_CLASS_1_POD_2_ZN_1_FLR_1,0.0,-64.00,30.00,0.00,-58.50,34.50,2.00,1,1,1,-64.00,-53.00,30.00,39.00,0.00,4.00,4.00,396.00,TARP,DOE-2,99.00,80.00,52.00,28.00,6,2,0,Yes
 Zone Information, CORNER_CLASS_1_POD_3_ZN_1_FLR_1,0.0,-64.00,61.00,0.00,-58.50,65.50,2.00,1,1,1,-64.00,-53.00,61.00,70.00,0.00,4.00,4.00,396.00,TARP,DOE-2,99.00,80.00,52.00,28.00,6,2,0,Yes
 Zone Information, CORNER_CLASS_2_POD_1_ZN_1_FLR_1,0.0,-64.00,12.00,0.00,-58.50,16.50,2.00,1,1,1,-64.00,-53.00,12.00,21.00,0.00,4.00,4.00,396.00,TARP,DOE-2,99.00,80.00,52.00,28.00,6,2,0,Yes
 Zone Information, CORNER_CLASS_2_POD_2_ZN_1_FLR_1,0.0,-64.00,42.00,0.00,-58.50,46.50,2.00,1,1,1,-64.00,-53.00,42.00,51.00,0.00,4.00,4.00,396.00,TARP,DOE-2,99.00,80.00,52.00,28.00,6,2,0,Yes
 Zone Information, CORNER_CLASS_2_POD_3_ZN_1_FLR_1,0.0,-64.00,73.00,0.00,-58.50,77.50,2.00,1,1,1,-64.00,-53.00,73.00,82.00,0.00,4.00,4.00,396.00,TARP,DOE-2,99.00,80.00,52.00,28.00,6,2,0,Yes
 Zone Information, CORRIDOR_POD_1_ZN_1_FLR_1,0.0,-64.00,9.00,0.00,-32.00,10.50,2.00,1,1,1,-64.00,0.00,9.00,12.00,0.00,4.00,4.00,768.00,TARP,DOE-2,192.00,12.00,7.80,4.20,8,1,0,Yes
 Zone Information, CORRIDOR_POD_2_ZN_1_FLR_1,0.0,-64.00,39.00,0.00,-32.00,40.50,2.00,1,1,1,-64.00,0.00,39.00,42.00,0.00,4.00,4.00,768.00,TARP,DOE-2,192.00,12.00,7.80,4.20,8,1,0,Yes
 Zone Information, CORRIDOR_POD_3_ZN_1_FLR_1,0.0,-64.00,70.00,0.00,-32.00,71.50,2.00,1,1,1,-64.00,0.00,70.00,73.00,0.00,4.00,4.00,768.00,TARP,DOE-2,192.00,12.00,7.80,4.20,9,1,0,Yes
 Zone Information, GYM_ZN_1_FLR_1,0.0,19.00,21.00,0.00,29.50,29.50,2.00,1,1,1,19.00,40.00,21.00,38.00,0.00,4.00,4.00,1428.00,TARP,DOE-2,357.00,68.00,44.20,37.18,6,10,0,Yes
 Zone Information, KITCHEN_ZN_1_FLR_1,0.0,19.00,38.00,0.00,29.50,42.00,2.00,1,1,1,19.00,40.00,38.00,46.00,0.00,4.00,4.00,672.00,TARP,DOE-2,168.00,32.00,20.80,11.20,6,1,0,Yes
 Zone Information, LIBRARY_MEDIA_CENTER_ZN_1_FLR_1,0.0,0.00,61.00,0.00,9.50,71.50,2.00,1,1,1,0.00,19.00,61.00,82.00,0.00,4.00,4.00,1596.00,TARP,DOE-2,399.00,160.00,104.00,56.00,8,2,0,Yes
 Zone Information, LOBBY_ZN_1_FLR_1,0.0,0.00,0.00,0.00,9.50,4.50,2.00,1,1,1,0.00,19.00,0.00,9.00,0.00,4.00,4.00,684.00,TARP,DOE-2,171.00,76.00,49.40,26.60,7,1,0,Yes
 Zone Information, MAIN_CORRIDOR_ZN_1_FLR_1,0.0,0.00,9.00,0.00,6.50,30.00,2.00,1,1,1,0.00,13.00,9.00,51.00,0.00,4.00,4.00,2184.00,TARP,DOE-2,546.00,36.00,23.40,12.60,11,1,0,Yes
 Zone Information, MECH_ZN_1_FLR_1,0.0,13.00,9.00,0.00,16.00,30.00,2.00,1,1,1,13.00,19.00,9.00,51.00,0.00,4.00,4.00,1008.00,TARP,DOE-2,252.00,0.00,0.00,0.00,9,0,0,Yes
 Zone Information, MULT_CLASS_1_POD_1_ZN_1_FLR_1,0.0,-53.00,0.00,0.00,-26.50,4.50,2.00,1,1,1,-53.00,0.00,0.00,9.00,0.00,4.00,4.00,1908.00,TARP,DOE-2,477.00,212.00,137.80,74.20,6,1,0,Yes
 Zone Information, MULT_CLASS_1_POD_2_ZN_1_FLR_1,0.0,-53.00,30.00,0.00,-26.50,34.50,2.00,1,1,1,-53.00,0.00,30.00,39.00,0.00,4.00,4.00,1908.00,TARP,DOE-2,477.00,212.00,137.80,74.20,6,1,0,Yes
 Zone Information, MULT_CLASS_1_POD_3_ZN_1_FLR_1,0.0,-53.00,61.00,0.00,-26.50,65.50,2.00,1,1,1,-53.00,0.00,61.00,70.00,0.00,4.00,4.00,1908.00,TARP,DOE-2,477.00,212.00,137.80,74.20,6,1,0,Yes
 Zone Information, MULT_CLASS_2_POD_1_ZN_1_FLR_1,0.0,-53.00,12.00,0.00,-26.50,16.50,2.00,1,1,1,-53.00,0.00,12.00,21.00,0.00,4.00,4.00,1908.00,TARP,DOE-2,477.00,212.00,137.80,74.20,6,1,0,Yes
 Zone Information, MULT_CLASS_2_POD_2_ZN_1_FLR_1,0.0,-53.00,42.00,0.00,-26.50,46.50,2.00,1,1,1,-53.00,0.00,42.00,51.00,0.00,4.00,4.00,1908.00,TARP,DOE-2,477.00,212.00,137.80,74.20,6,1,0,Yes
 Zone Information, MULT_CLASS_2_POD_3_ZN_1_FLR_1,0.0,-53.00,73.00,0.00,-35.50,77.50,2.00,1,1,1,-53.00,-18.00,73.00,82.00,0.00,4.00,4.00,1260.00,TARP,DOE-2,315.00,140.00,91.00,49.00,6,1,0,Yes
 Zone Information, OFFICES_ZN_1_FLR_1,0.0,19.00,0.00,0.00,29.50,10.50,2.00,1,1,1,19.00,40.00,0.00,21.00,0.00,4.00,4.00,1764.00,TARP,DOE-2,441.00,168.00,109.20,58.80,7,2,0,Yes
! <Zone Internal Gains Nominal>,Zone Name, Floor Area {m2},# Occupants,Area per Occupant {m2/person},Occupant per Area {person/m2},Interior Lighting {W/m2},Electric Load {W/m2},Gas Load {W/m2},Other Load {W/m2},Hot Water Eq {W/m2},Steam Equipment {W/m2},Sum Loads per Area {W/m2},Outdoor Controlled Baseboard Heat
 Zone Internal Gains Nominal, BATH_ZN_1_FLR_1,190.00,19.0,10.000,0.100,9.680,4.000,0.000,0.000,0.000,0.000,13.680,No
 Zone Internal Gains Nominal, CAFETERIA_ZN_1_FLR_1,315.00,226.6,1.390,0.719,15.060,25.390,0.000,0.000,0.000,0.000,40.450,No
 Zone Internal Gains Nominal, COMPUTER_CLASS_ZN_1_FLR_1,162.00,48.6,3.330,0.300,15.060,20.000,0.000,0.000,0.000,0.000,35.060,No
 Zone Internal Gains Nominal, CORNER_CLASS_1_POD_1_ZN_1_FLR_1,99.00,24.8,4.000,0.250,15.060,15.000,0.000,0.000,0.000,0.000,30.060,No
 Zone Internal Gains Nominal, CORNER_CLASS_1_POD_2_ZN_1_FLR_1,99.00,24.8,4.000,0.250,15.060,15.000,0.000,0.000,0.000,0.000,30.060,No
 Zone Internal Gains Nominal, CORNER_CLASS_1_POD_3_ZN_1_FLR_1,99.00,24.8,4.000,0.250,15.060,15.000,0.000,0.000,0.000,0.000,30.060,No
 Zone Internal Gains Nominal, CORNER_CLASS_2_POD_1_ZN_1_FLR_1,99.00,24.8,4.000,0.250,15.060,15.000,0.000,0.000,0.000,0.000,30.060,No
 Zone Internal Gains Nominal, CORNER_CLASS_2_POD_2_ZN_1_FLR_1,99.00,24.8,4.000,0.250,15.060,15.000,0.000,0.000,0.000,0.000,30.060,No
 Zone Internal Gains Nominal, CORNER_CLASS_2_POD_3_ZN_1_FLR_1,99.00,24.8,4.000,0.250,15.060,15.000,0.000,0.000,0.000,0.000,30.060,No
 Zone Internal Gains Nominal, CORRIDOR_POD_1_ZN_1_FLR_1,192.00,19.2,10.000,0.100,5.380,4.000,0.000,0.000,0.000,0.000,9.380,No
 Zone Internal Gains Nominal, CORRIDOR_POD_2_ZN_1_FLR_1,192.00,19.2,10.000,0.100,5.380,4.000,0.000,0.000,0.000,0.000,9.380,No
 Zone Internal Gains Nominal, CORRIDOR_POD_3_ZN_1_FLR_1,192.00,19.2,10.000,0.100,5.380,4.000,0.000,0.000,0.000,0.000,9.380,No
 Zone Internal Gains Nominal, GYM_ZN_1_FLR_1,357.00,107.2,3.330,0.300,15.060,5.000,0.000,0.000,0.000,0.000,20.060,No
 Zone Internal Gains Nominal, KITCHEN_ZN_1_FLR_1,168.00,25.2,6.667,0.150,12.910,193.881,954.071,0.000,0.000,0.000,1160.862,No
 Zone Internal Gains Nominal, LIBRARY_MEDIA_CENTER_ZN_1_FLR_1,399.00,91.7,4.350,0.230,13.990,15.000,0.000,0.000,0.000,0.000,28.990,No
 Zone Internal Gains Nominal, LOBBY_ZN_1_FLR_1,171.00,0.0,N/A,0.000,13.990,4.000,0.000,0.000,0.000,0.000,17.990,No
 Zone Internal Gains Nominal, MAIN_CORRIDOR_ZN_1_FLR_1,546.00,54.6,10.000,0.100,5.380,4.000,0.000,0.000,0.000,0.000,9.380,No
 Zone Internal Gains Nominal, MECH_ZN_1_FLR_1,252.00,0.0,N/A,0.000,16.140,4.000,0.000,0.000,0.000,0.000,20.140,No
 Zone Internal Gains Nominal, MULT_CLASS_1_POD_1_ZN_1_FLR_1,477.00,119.3,4.000,0.250,15.060,15.000,0.000,0.000,0.000,0.000,30.060,No
 Zone Internal Gains Nominal, MULT_CLASS_1_POD_2_ZN_1_FLR_1,477.00,119.3,4.000,0.250,15.060,15.000,0.000,0.000,0.000,0.000,30.060,No
 Zone Internal Gains Nominal, MULT_CLASS_1_POD_3_ZN_1_FLR_1,477.00,119.3,4.000,0.250,15.060,15.000,0.000,0.000,0.000,0.000,30.060,No
 Zone Internal Gains Nominal, MULT_CLASS_2_POD_1_ZN_1_FLR_1,477.00,119.3,4.000,0.250,15.060,15.000,0.000,0.000,0.000,0.000,30.060,No
 Zone Internal Gains Nominal, MULT_CLASS_2_POD_2_ZN_1_FLR_1,477.00,119.3,4.000,0.250,15.060,15.000,0.000,0.000,0.000,0.000,30.060,No
 Zone Internal Gains Nominal, MULT_CLASS_2_POD_3_ZN_1_FLR_1,315.00,78.8,4.000,0.250,15.060,15.000,0.000,0.000,0.000,0.000,30.060,No
 Zone Internal Gains Nominal, OFFICES_ZN_1_FLR_1,441.00,22.1,20.000,5.000E-002,11.840,10.800,0.000,0.000,0.000,0.000,22.640,No
! <People Internal Gains Nominal>,Name,Schedule Name,Zone Name,Zone Floor Area {m2},# Zone Occupants,Number of People {},People/Floor Area {person/m2},Floor Area per person {m2/person},Fraction Radiant,Fraction Convected,Sensible Fraction Calculation,Activity level,ASHRAE 55 Warnings,Carbon Dioxide Generation Rate,Nominal Minimum Number of People,Nominal Maximum Number of People,MRT Calculation Type,Work Efficiency, Clothing Insulation Calculation Method,Clothing Insulation Calculation Method Schedule,Clothing,Air Velocity,Fanger Calculation,Pierce Calculation,KSU Calculation
 People Internal Gains Nominal, BATH_ZN_1_FLR_1 PEOPLE,BLDG_OCC_SCH,BATH_ZN_1_FLR_1,190.00,19.0,19.0,0.100,10.000,0.300,0.700,AutoCalculate,ACTIVITY_SCH,No,3.8200E-008,0,14,Zone Averaged,WORK_EFF_SCH,Clothing Insulation Schedule,N/A,CLOTHING_SCH,AIR_VELO_SCH,Yes,No,No
 People Internal Gains Nominal, CAFETERIA_ZN_1_FLR_1 PEOPLE,BLDG_OCC_SCH_CAFETERIA,CAFETERIA_ZN_1_FLR_1,315.00,226.6,226.6,0.719,1.390,0.300,0.700,AutoCalculate,ACTIVITY_SCH,No,3.8200E-008,0,215,Zone Averaged,WORK_EFF_SCH,Clothing Insulation Schedule,N/A,CLOTHING_SCH,AIR_VELO_SCH,Yes,No,No
 People Internal Gains Nominal, COMPUTER_CLASS_ZN_1_FLR_1 PEOPLE,BLDG_OCC_SCH,COMPUTER_CLASS_ZN_1_FLR_1,162.00,48.6,48.6,0.300,3.330,0.300,0.700,AutoCalculate,ACTIVITY_SCH,No,3.8200E-008,0,36,Zone Averaged,WORK_EFF_SCH,Clothing Insulation Schedule,N/A,CLOTHING_SCH,AIR_VELO_SCH,Yes,No,No
 People Internal Gains Nominal, CORNER_CLASS_1_POD_1_ZN_1_FLR_1 PEOPLE,BLDG_OCC_SCH,CORNER_CLASS_1_POD_1_ZN_1_FLR_1,99.00,24.8,24.8,0.250,4.000,0.300,0.700,AutoCalculate,ACTIVITY_SCH,No,3.8200E-008,0,19,Zone Averaged,WORK_EFF_SCH,Clothing Insulation Schedule,N/A,CLOTHING_SCH,AIR_VELO_SCH,Yes,No,No
 People Internal Gains Nominal, CORNER_CLASS_1_POD_2_ZN_1_FLR_1 PEOPLE,BLDG_OCC_SCH,CORNER_CLASS_1_POD_2_ZN_1_FLR_1,99.00,24.8,24.8,0.250,4.000,0.300,0.700,AutoCalculate,ACTIVITY_SCH,No,3.8200E-008,0,19,Zone Averaged,WORK_EFF_SCH,Clothing Insulation Schedule,N/A,CLOTHING_SCH,AIR_VELO_SCH,Yes,No,No
 People Internal Gains Nominal, CORNER_CLASS_1_POD_3_ZN_1_FLR_1 PEOPLE,BLDG_OCC_SCH,CORNER_CLASS_1_POD_3_ZN_1_FLR_1,99.00,24.8,24.8,0.250,4.000,0.300,0.700,AutoCalculate,ACTIVITY_SCH,No,3.8200E-008,0,19,Zone Averaged,WORK_EFF_SCH,Clothing Insulation Schedule,N/A,CLOTHING_SCH,AIR_VELO_SCH,Yes,No,No
 People Internal Gains Nominal, CORNER_CLASS_2_POD_1_ZN_1_FLR_1 PEOPLE,BLDG_OCC_SCH,CORNER_CLASS_2_POD_1_ZN_1_FLR_1,99.00,24.8,24.8,0.250,4.000,0.300,0.700,AutoCalculate,ACTIVITY_SCH,No,3.8200E-008,0,19,Zone Averaged,WORK_EFF_SCH,Clothing Insulation Schedule,N/A,CLOTHING_SCH,AIR_VELO_SCH,Yes,No,No
 People Internal Gains Nominal, CORNER_CLASS_2_POD_2_ZN_1_FLR_1 PEOPLE,BLDG_OCC_SCH,CORNER_CLASS_2_POD_2_ZN_1_FLR_1,99.00,24.8,24.8,0.250,4.000,0.300,0.700,AutoCalculate,ACTIVITY_SCH,No,3.8200E-008,0,19,Zone Averaged,WORK_EFF_SCH,Clothing Insulation Schedule,N/A,CLOTHING_SCH,AIR_VELO_SCH,Yes,No,No
 People Internal Gains Nominal, CORNER_CLASS_2_POD_3_ZN_1_FLR_1 PEOPLE,BLDG_OCC_SCH,CORNER_CLASS_2_POD_3_ZN_1_FLR_1,99.00,24.8,24.8,0.250,4.000,0.300,0.700,AutoCalculate,ACTIVITY_SCH,No,3.8200E-008,0,19,Zone Averaged,WORK_EFF_SCH,Clothing Insulation Schedule,N/A,CLOTHING_SCH,AIR_VELO_SCH,Yes,No,No
 People Internal Gains Nominal, CORRIDOR_POD_1_ZN_1_FLR_1 PEOPLE,BLDG_OCC_SCH,CORRIDOR_POD_1_ZN_1_FLR_1,192.00,19.2,19.2,0.100,10.000,0.300,0.700,AutoCalculate,ACTIVITY_SCH,No,3.8200E-008,0,14,Zone Averaged,WORK_EFF_SCH,Clothing Insulation Schedule,N/A,CLOTHING_SCH,AIR_VELO_SCH,Yes,No,No
 People Internal Gains Nominal, CORRIDOR_POD_2_ZN_1_FLR_1 PEOPLE,BLDG_OCC_SCH,CORRIDOR_POD_2_ZN_1_FLR_1,192.00,19.2,19.2,0.100,10.000,0.300,0.700,AutoCalculate,ACTIVITY_SCH,No,3.8200E-008,0,14,Zone Averaged,WORK_EFF_SCH,Clothing Insulation Schedule,N/A,CLOTHING_SCH,AIR_VELO_SCH,Yes,No,No
 People Internal Gains Nominal, CORRIDOR_POD_3_ZN_1_FLR_1 PEOPLE,BLDG_OCC_SCH,CORRIDOR_POD_3_ZN_1_FLR_1,192.00,19.2,19.2,0.100,10.000,0.300,0.700,AutoCalculate,ACTIVITY_SCH,No,3.8200E-008,0,14,Zone Averaged,WORK_EFF_SCH,Clothing Insulation Schedule,N/A,CLOTHING_SCH,AIR_VELO_SCH,Yes,No,No
 People Internal Gains Nominal, GYM_ZN_1_FLR_1 PEOPLE,BLDG_OCC_SCH_GYM,GYM_ZN_1_FLR_1,357.00,107.2,107.2,0.300,3.330,0.300,0.700,AutoCalculate,ACTIVITY_SCH,No,3.8200E-008,0,102,Zone Averaged,WORK_EFF_SCH,Clothing Insulation Schedule,N/A,CLOTHING_SCH,AIR_VELO_SCH,Yes,No,No
 People Internal Gains Nominal, KITCHEN_ZN_1_FLR_1 PEOPLE,BLDG_OCC_SCH,KITCHEN_ZN_1_FLR_1,168.00,25.2,25.2,0.150,6.667,0.300,0.700,AutoCalculate,ACTIVITY_SCH,No,3.8200E-008,0,19,Zone Averaged,WORK_EFF_SCH,Clothing Insulation Schedule,N/A,CLOTHING_SCH,AIR_VELO_SCH,Yes,No,No
 People Internal Gains Nominal, LIBRARY_MEDIA_CENTER_ZN_1_FLR_1 PEOPLE,BLDG_OCC_SCH,LIBRARY_MEDIA_CENTER_ZN_1_FLR_1,399.00,91.7,91.7,0.230,4.350,0.300,0.700,AutoCalculate,ACTIVITY_SCH,No,3.8200E-008,0,69,Zone Averaged,WORK_EFF_SCH,Clothing Insulation Schedule,N/A,CLOTHING_SCH,AIR_VELO_SCH,Yes,No,No
 People Internal Gains Nominal, MAIN_CORRIDOR_ZN_1_FLR_1 PEOPLE,BLDG_OCC_SCH,MAIN_CORRIDOR_ZN_1_FLR_1,546.00,54.6,54.6,0.100,10.000,0.300,0.700,AutoCalculate,ACTIVITY_SCH,No,3.8200E-008,0,41,Zone Averaged,WORK_EFF_SCH,Clothing Insulation Schedule,N/A,CLOTHING_SCH,AIR_VELO_SCH,Yes,No,No
 People Internal Gains Nominal, MULT_CLASS_1_POD_1_ZN_1_FLR_1 PEOPLE,BLDG_OCC_SCH,MULT_CLASS_1_POD_1_ZN_1_FLR_1,477.00,119.3,119.3,0.250,4.000,0.300,0.700,AutoCalculate,ACTIVITY_SCH,No,3.8200E-008,0,89,Zone Averaged,WORK_EFF_SCH,Clothing Insulation Schedule,N/A,CLOTHING_SCH,AIR_VELO_SCH,Yes,No,No
 People Internal Gains Nominal, MULT_CLASS_1_POD_2_ZN_1_FLR_1 PEOPLE,BLDG_OCC_SCH,MULT_CLASS_1_POD_2_ZN_1_FLR_1,477.00,119.3,119.3,0.250,4.000,0.300,0.700,AutoCalculate,ACTIVITY_SCH,No,3.8200E-008,0,89,Zone Averaged,WORK_EFF_SCH,Clothing Insulation Schedule,N/A,CLOTHING_SCH,AIR_VELO_SCH,Yes,No,No
 People Internal Gains Nominal, MULT_CLASS_1_POD_3_ZN_1_FLR_1 PEOPLE,BLDG_OCC_SCH,MULT_CLASS_1_POD_3_ZN_1_FLR_1,477.00,119.3,119.3,0.250,4.000,0.300,0.700,AutoCalculate,ACTIVITY_SCH,No,3.8200E-008,0,89,Zone Averaged,WORK_EFF_SCH,Clothing Insulation Schedule,N/A,CLOTHING_SCH,AIR_VELO_SCH,Yes,No,No
 People Internal Gains Nominal, MULT_CLASS_2_POD_1_ZN_1_FLR_1 PEOPLE,BLDG_OCC_SCH,MULT_CLASS_2_POD_1_ZN_1_FLR_1,477.00,119.3,119.3,0.250,4.000,0.300,0.700,AutoCalculate,ACTIVITY_SCH,No,3.8200E-008,0,89,Zone Averaged,WORK_EFF_SCH,Clothing Insulation Schedule,N/A,CLOTHING_SCH,AIR_VELO_SCH,Yes,No,No
 People Internal Gains Nominal, MULT_CLASS_2_POD_2_ZN_1_FLR_1 PEOPLE,BLDG_OCC_SCH,MULT_CLASS_2_POD_2_ZN_1_FLR_1,477.00,119.3,119.3,0.250,4.000,0.300,0.700,AutoCalculate,ACTIVITY_SCH,No,3.8200E-008,0,89,Zone Averaged,WORK_EFF_SCH,Clothing Insulation Schedule,N/A,CLOTHING_SCH,AIR_VELO_SCH,Yes,No,No
 People Internal Gains Nominal, MULT_CLASS_2_POD_3_ZN_1_FLR_1 PEOPLE,BLDG_OCC_SCH,MULT_CLASS_2_POD_3_ZN_1_FLR_1,315.00,78.8,78.8,0.250,4.000,0.300,0.700,AutoCalculate,ACTIVITY_SCH,No,3.8200E-008,0,59,Zone Averaged,WORK_EFF_SCH,Clothing Insulation Schedule,N/A,CLOTHING_SCH,AIR_VELO_SCH,Yes,No,No
 People Internal Gains Nominal, OFFICES_ZN_1_FLR_1 PEOPLE,BLDG_OCC_SCH_OFFICES,OFFICES_ZN_1_FLR_1,441.00,22.1,22.1,5.000E-002,20.000,0.300,0.700,AutoCalculate,ACTIVITY_SCH,No,3.8200E-008,0,21,Zone Averaged,WORK_EFF_SCH,Clothing Insulation Schedule,N/A,CLOTHING_SCH,AIR_VELO_SCH,Yes,No,No
! <Lights Internal Gains Nominal>,Name,Schedule Name,Zone Name,Zone Floor Area {m2},# Zone Occupants,Lighting Level {W},Lights/Floor Area {W/m2},Lights per person {W/person},Fraction Return Air,Fraction Radiant,Fraction Short Wave,Fraction Convected,Fraction Replaceable,End-Use Category,Nominal Minimum Lighting Level {W},Nominal Maximum Lighting Level {W}
 Lights Internal Gains Nominal, BATH_ZN_1_FLR_1_LIGHTS,BLDG_LIGHT_SCH,BATH_ZN_1_FLR_1,190.00,19.0,1839.200,9.680,96.800,0.000,0.370,0.200,0.430,1.000,General,326.090,1655.280
 Lights Internal Gains Nominal, CAFETERIA_ZN_1_FLR_1_LIGHTS,BLDG_LIGHT_SCH,CAFETERIA_ZN_1_FLR_1,315.00,226.6,4743.900,15.060,20.933,0.000,0.370,0.200,0.430,1.000,General,841.093,4269.510
 Lights Internal Gains Nominal, COMPUTER_CLASS_ZN_1_FLR_1_LIGHTS,BLDG_LIGHT_SCH,COMPUTER_CLASS_ZN_1_FLR_1,162.00,48.6,2439.720,15.060,50.150,0.000,0.370,0.200,0.430,1.000,General,432.562,2195.748
 Lights Internal Gains Nominal, CORNER_CLASS_1_POD_1_ZN_1_FLR_1_LIGHTS,BLDG_LIGHT_SCH,CORNER_CLASS_1_POD_1_ZN_1_FLR_1,99.00,24.8,1490.940,15.060,60.240,0.000,0.370,0.200,0.430,1.000,General,264.344,1341.846
 Lights Internal Gains Nominal, CORNER_CLASS_1_POD_2_ZN_1_FLR_1_LIGHTS,BLDG_LIGHT_SCH,CORNER_CLASS_1_POD_2_ZN_1_FLR_1,99.00,24.8,1490.940,15.060,60.240,0.000,0.370,0.200,0.430,1.000,General,264.344,1341.846
 Lights Internal Gains Nominal, CORNER_CLASS_1_POD_3_ZN_1_FLR_1_LIGHTS,BLDG_LIGHT_SCH,CORNER_CLASS_1_POD_3_ZN_1_FLR_1,99.00,24.8,1490.940,15.060,60.240,0.000,0.370,0.200,0.430,1.000,General,264.344,1341.846
 Lights Internal Gains Nominal, CORNER_CLASS_2_POD_1_ZN_1_FLR_1_LIGHTS,BLDG_LIGHT_SCH,CORNER_CLASS_2_POD_1_ZN_1_FLR_1,99.00,24.8,1490.940,15.060,60.240,0.000,0.370,0.200,0.430,1.000,General,264.344,1341.846
 Lights Internal Gains Nominal, CORNER_CLASS_2_POD_2_ZN_1_FLR_1_LIGHTS,BLDG_LIGHT_SCH,CORNER_CLASS_2_POD_2_ZN_1_FLR_1,99.00,24.8,1490.940,15.060,60.240,0.000,0.370,0.200,0.430,1.000,General,264.344,1341.846
 Lights Internal Gains Nominal, CORNER_CLASS_2_POD_3_ZN_1_FLR_1_LIGHTS,BLDG_LIGHT_SCH,CORNER_CLASS_2_POD_3_ZN_1_FLR_1,99.00,24.8,1490.940,15.060,60.240,0.000,0.370,0.200,0.430,1.000,General,264.344,1341.846
 Lights Internal Gains Nominal, CORRIDOR_POD_1_ZN_1_FLR_1_LIGHTS,BLDG_LIGHT_SCH,CORRIDOR_POD_1_ZN_1_FLR_1,192.00,19.2,1032.960,5.380,53.800,0.000,0.370,0.200,0.430,1.000,General,183.144,929.664
 Lights Internal Gains Nominal, CORRIDOR_POD_2_ZN_1_FLR_1_LIGHTS,BLDG_LIGHT_SCH,CORRIDOR_POD_2_ZN_1_FLR_1,192.00,19.2,1032.960,5.380,53.800,0.000,0.370,0.200,0.430,1.000,General,183.144,929.664
 Lights Internal Gains Nominal, CORRIDOR_POD_3_ZN_1_FLR_1_LIGHTS,BLDG_LIGHT_SCH,CORRIDOR_POD_3_ZN_1_FLR_1,192.00,19.2,1032.960,5.380,53.800,0.000,0.370,0.200,0.430,1.000,General,183.144,929.664
 Lights Internal Gains Nominal, GYM_ZN_1_FLR_1_LIGHTS,BLDG_LIGHT_SCH,GYM_ZN_1_FLR_1,357.00,107.2,5376.420,15.060,50.150,0.000,0.370,0.200,0.430,1.000,General,953.239,4838.778
 Lights Internal Gains Nominal, KITCHEN_ZN_1_FLR_1_LIGHTS,BLDG_LIGHT_SCH,KITCHEN_ZN_1_FLR_1,168.00,25.2,2168.880,12.910,86.067,0.000,0.370,0.200,0.430,1.000,General,384.542,1951.992
 Lights Internal Gains Nominal, LIBRARY_MEDIA_CENTER_ZN_1_FLR_1_LIGHTS,BLDG_LIGHT_SCH,LIBRARY_MEDIA_CENTER_ZN_1_FLR_1,399.00,91.7,5582.010,13.990,60.857,0.000,0.370,0.200,0.430,1.000,General,989.690,5023.809
 Lights Internal Gains Nominal, LOBBY_ZN_1_FLR_1_LIGHTS,BLDG_LIGHT_SCH,LOBBY_ZN_1_FLR_1,171.00,0.0,2392.290,13.990,N/A,0.000,0.370,0.200,0.430,1.000,General,424.153,2153.061
 Lights Internal Gains Nominal, MAIN_CORRIDOR_ZN_1_FLR_1_LIGHTS,BLDG_LIGHT_SCH,MAIN_CORRIDOR_ZN_1_FLR_1,546.00,54.6,2937.480,5.380,53.800,0.000,0.370,0.200,0.430,1.000,General,520.815,2643.732
 Lights Internal Gains Nominal, MECH_ZN_1_FLR_1_LIGHTS,BLDG_LIGHT_SCH,MECH_ZN_1_FLR_1,252.00,0.0,4067.280,16.140,N/A,0.000,0.370,0.200,0.430,1.000,General,721.129,3660.552
 Lights Internal Gains Nominal, MULT_CLASS_1_POD_1_ZN_1_FLR_1_LIGHTS,BLDG_LIGHT_SCH,MULT_CLASS_1_POD_1_ZN_1_FLR_1,477.00,119.3,7183.620,15.060,60.240,0.000,0.370,0.200,0.430,1.000,General,1273.656,6465.258
 Lights Internal Gains Nominal, MULT_CLASS_1_POD_2_ZN_1_FLR_1_LIGHTS,BLDG_LIGHT_SCH,MULT_CLASS_1_POD_2_ZN_1_FLR_1,477.00,119.3,7183.620,15.060,60.240,0.000,0.370,0.200,0.430,1.000,General,1273.656,6465.258
 Lights Internal Gains Nominal, MULT_CLASS_1_POD_3_ZN_1_FLR_1_LIGHTS,BLDG_LIGHT_SCH,MULT_CLASS_1_POD_3_ZN_1_FLR_1,477.00,119.3,7183.620,15.060,60.240,0.000,0.370,0.200,0.430,1.000,General,1273.656,6465.258
 Lights Internal Gains Nominal, MULT_CLASS_2_POD_1_ZN_1_FLR_1_LIGHTS,BLDG_LIGHT_SCH,MULT_CLASS_2_POD_1_ZN_1_FLR_1,477.00,119.3,7183.620,15.060,60.240,0.000,0.370,0.200,0.430,1.000,General,1273.656,6465.258
 Lights Internal Gains Nominal, MULT_CLASS_2_POD_2_ZN_1_FLR_1_LIGHTS,BLDG_LIGHT_SCH,MULT_CLASS_2_POD_2_ZN_1_FLR_1,477.00,119.3,7183.620,15.060,60.240,0.000,0.370,0.200,0.430,1.000,General,1273.656,6465.258
 Lights Internal Gains Nominal, MULT_CLASS_2_POD_3_ZN_1_FLR_1_LIGHTS,BLDG_LIGHT_SCH,MULT_CLASS_2_POD_3_ZN_1_FLR_1,315.00,78.8,4743.900,15.060,60.240,0.000,0.370,0.200,0.430,1.000,General,841.093,4269.510
 Lights Internal Gains Nominal, OFFICES_ZN_1_FLR_1_LIGHTS,BLDG_LIGHT_SCH,OFFICES_ZN_1_FLR_1,441.00,22.1,5221.440,11.840,236.800,0.000,0.370,0.200,0.430,1.000,General,925.761,4699.296
! <ElectricEquipment Internal Gains Nominal>,Name,Schedule Name,Zone Name,Zone Floor Area {m2},# Zone Occupants,Equipment Level {W},Equipment/Floor Area {W/m2},Equipment per person {W/person},Fraction Latent,Fraction Radiant,Fraction Lost,Fraction Convected,End-Use SubCategory,Nominal Minimum Equipment Level {W},Nominal Maximum Equipment Level {W}
 ElectricEquipment Internal Gains Nominal, BATH_ZN_1_FLR_1_PLUGMISC_EQUIP,BLDG_EQUIP_SCH,BATH_ZN_1_FLR_1,190.00,19.0,760.000,4.000,40.000,0.000,0.500,0.000,0.500,General,190.000,722.000
 ElectricEquipment Internal Gains Nominal, CAFETERIA_ZN_1_FLR_1_PLUGMISC_EQUIP,KITCHEN_ELEC_EQUIP_SCH,CAFETERIA_ZN_1_FLR_1,315.00,226.6,7997.850,25.390,35.292,0.000,0.500,0.000,0.500,General,799.785,1999.463
 ElectricEquipment Internal Gains Nominal, COMPUTER_CLASS_ZN_1_FLR_1_PLUGMISC_EQUIP,BLDG_EQUIP_SCH,COMPUTER_CLASS_ZN_1_FLR_1,162.00,48.6,3240.000,20.000,66.600,0.000,0.500,0.000,0.500,General,810.000,3078.000
 ElectricEquipment Internal Gains Nominal, CORNER_CLASS_1_POD_1_ZN_1_FLR_1_PLUGMISC_EQUIP,BLDG_EQUIP_SCH,CORNER_CLASS_1_POD_1_ZN_1_FLR_1,99.00,24.8,1485.000,15.000,60.000,0.000,0.500,0.000,0.500,General,371.250,1410.750
 ElectricEquipment Internal Gains Nominal, CORNER_CLASS_1_POD_2_ZN_1_FLR_1_PLUGMISC_EQUIP,BLDG_EQUIP_SCH,CORNER_CLASS_1_POD_2_ZN_1_FLR_1,99.00,24.8,1485.000,15.000,60.000,0.000,0.500,0.000,0.500,General,371.250,1410.750
 ElectricEquipment Internal Gains Nominal, CORNER_CLASS_1_POD_3_ZN_1_FLR_1_PLUGMISC_EQUIP,BLDG_EQUIP_SCH,CORNER_CLASS_1_POD_3_ZN_1_FLR_1,99.00,24.8,1485.000,15.000,60.000,0.000,0.500,0.000,0.500,General,371.250,1410.750
 ElectricEquipment Internal Gains Nominal, CORNER_CLASS_2_POD_1_ZN_1_FLR_1_PLUGMISC_EQUIP,BLDG_EQUIP_SCH,CORNER_CLASS_2_POD_1_ZN_1_FLR_1,99.00,24.8,1485.000,15.000,60.000,0.000,0.500,0.000,0.500,General,371.250,1410.750
 ElectricEquipment Internal Gains Nominal, CORNER_CLASS_2_POD_2_ZN_1_FLR_1_PLUGMISC_EQUIP,BLDG_EQUIP_SCH,CORNER_CLASS_2_POD_2_ZN_1_FLR_1,99.00,24.8,1485.000,15.000,60.000,0.000,0.500,0.000,0.500,General,371.250,1410.750
 ElectricEquipment Internal Gains Nominal, CORNER_CLASS_2_POD_3_ZN_1_FLR_1_PLUGMISC_EQUIP,BLDG_EQUIP_SCH,CORNER_CLASS_2_POD_3_ZN_1_FLR_1,99.00,24.8,1485.000,15.000,60.000,0.000,0.500,0.000,0.500,General,371.250,1410.750
 ElectricEquipment Internal Gains Nominal, CORRIDOR_POD_1_ZN_1_FLR_1_PLUGMISC_EQUIP,BLDG_EQUIP_SCH,CORRIDOR_POD_1_ZN_1_FLR_1,192.00,19.2,768.000,4.000,40.000,0.000,0.500,0.000,0.500,General,192.000,729.600
 ElectricEquipment Internal Gains Nominal, CORRIDOR_POD_2_ZN_1_FLR_1_PLUGMISC_EQUIP,BLDG_EQUIP_SCH,CORRIDOR_POD_2_ZN_1_FLR_1,192.00,19.2,768.000,4.000,40.000,0.000,0.500,0.000,0.500,General,192.000,729.600
 ElectricEquipment Internal Gains Nominal, CORRIDOR_POD_3_ZN_1_FLR_1_PLUGMISC_EQUIP,BLDG_EQUIP_SCH,CORRIDOR_POD_3_ZN_1_FLR_1,192.00,19.2,768.000,4.000,40.000,0.000,0.500,0.000,0.500,General,192.000,729.600
 ElectricEquipment Internal Gains Nominal, GYM_ZN_1_FLR_1_PLUGMISC_EQUIP,BLDG_EQUIP_SCH,GYM_ZN_1_FLR_1,357.00,107.2,1785.000,5.000,16.650,0.000,0.500,0.000,0.500,General,446.250,1695.750
 ElectricEquipment Internal Gains Nominal, KITCHEN_ZN_1_FLR_1_EXHFAN_EQUIP,KITCHEN_EXHAUST_SCH,KITCHEN_ZN_1_FLR_1,168.00,25.2,576.000,3.429,22.857,0.000,0.000,1.000,0.000,KitchenExhFan,0.000,576.000
 ElectricEquipment Internal Gains Nominal, KITCHEN_ZN_1_FLR_1_MISCELEC_EQUIP,KITCHEN_ELEC_EQUIP_SCH,KITCHEN_ZN_1_FLR_1,168.00,25.2,31996.000,190.452,1269.683,0.250,0.300,0.200,0.250,MiscElec,3199.600,7999.000
 ElectricEquipment Internal Gains Nominal, LIBRARY_MEDIA_CENTER_ZN_1_FLR_1_PLUGMISC_EQUIP,BLDG_EQUIP_SCH,LIBRARY_MEDIA_CENTER_ZN_1_FLR_1,399.00,91.7,5985.000,15.000,65.250,0.000,0.500,0.000,0.500,General,1496.250,5685.750
 ElectricEquipment Internal Gains Nominal, LOBBY_ZN_1_FLR_1_PLUGMISC_EQUIP,BLDG_EQUIP_SCH,LOBBY_ZN_1_FLR_1,171.00,0.0,684.000,4.000,N/A,0.000,0.500,0.000,0.500,General,171.000,649.800
 ElectricEquipment Internal Gains Nominal, MAIN_CORRIDOR_ZN_1_FLR_1_PLUGMISC_EQUIP,BLDG_EQUIP_SCH,MAIN_CORRIDOR_ZN_1_FLR_1,546.00,54.6,2184.000,4.000,40.000,0.000,0.500,0.000,0.500,General,546.000,2074.800
 ElectricEquipment Internal Gains Nominal, MECH_ZN_1_FLR_1_PLUGMISC_EQUIP,BLDG_EQUIP_SCH,MECH_ZN_1_FLR_1,252.00,0.0,1008.000,4.000,N/A,0.000,0.500,0.000,0.500,General,252.000,957.600
 ElectricEquipment Internal Gains Nominal, MULT_CLASS_1_POD_1_ZN_1_FLR_1_PLUGMISC_EQUIP,BLDG_EQUIP_SCH,MULT_CLASS_1_POD_1_ZN_1_FLR_1,477.00,119.3,7155.000,15.000,60.000,0.000,0.500,0.000,0.500,General,1788.750,6797.250
 ElectricEquipment Internal Gains Nominal, MULT_CLASS_1_POD_2_ZN_1_FLR_1_PLUGMISC_EQUIP,BLDG_EQUIP_SCH,MULT_CLASS_1_POD_2_ZN_1_FLR_1,477.00,119.3,7155.000,15.000,60.000,0.000,0.500,0.000,0.500,General,1788.750,6797.250
 ElectricEquipment Internal Gains Nominal, MULT_CLASS_1_POD_3_ZN_1_FLR_1_PLUGMISC_EQUIP,BLDG_EQUIP_SCH,MULT_CLASS_1_POD_3_ZN_1_FLR_1,477.00,119.3,7155.000,15.000,60.000,0.000,0.500,0.000,0.500,General,1788.750,6797.250
 ElectricEquipment Internal Gains Nominal, MULT_CLASS_2_POD_1_ZN_1_FLR_1_PLUGMISC_EQUIP,BLDG_EQUIP_SCH,MULT_CLASS_2_POD_1_ZN_1_FLR_1,477.00,119.3,7155.000,15.000,60.000,0.000,0.500,0.000,0.500,General,1788.750,6797.250
 ElectricEquipment Internal Gains Nominal, MULT_CLASS_2_POD_2_ZN_1_FLR_1_PLUGMISC_EQUIP,BLDG_EQUIP_SCH,MULT_CLASS_2_POD_2_ZN_1_FLR_1,477.00,119.3,7155.000,15.000,60.000,0.000,0.500,0.000,0.500,General,1788.750,6797.250
 ElectricEquipment Internal Gains Nominal, MULT_CLASS_2_POD_3_ZN_1_FLR_1_PLUGMISC_EQUIP,BLDG_EQUIP_SCH,MULT_CLASS_2_POD_3_ZN_1_FLR_1,315.00,78.8,4725.000,15.000,60.000,0.000,0.500,0.000,0.500,General,1181.250,4488.750
 ElectricEquipment Internal Gains Nominal, OFFICES_ZN_1_FLR_1_PLUGMISC_EQUIP,BLDG_EQUIP_SCH,OFFICES_ZN_1_FLR_1,441.00,22.1,4762.800,10.800,216.000,0.000,0.500,0.000,0.500,General,1190.700,4524.660
! <GasEquipment Internal Gains Nominal>,Name,Schedule Name,Zone Name,Zone Floor Area {m2},# Zone Occupants,Equipment Level {W},Equipment/Floor Area {W/m2},Equipment per person {W/person},Fraction Latent,Fraction Radiant,Fraction Lost,Fraction Convected,End-Use SubCategory,Nominal Minimum Equipment Level {W},Nominal Maximum Equipment Level {W}
 GasEquipment Internal Gains Nominal, KITCHEN_ZN_1_FLR_1_MISCGAS_EQUIP,KITCHEN_GAS_EQUIP_SCH,KITCHEN_ZN_1_FLR_1,168.00,25.2,160284.000,954.071,6360.476,0.100,0.200,0.700,0.000,MiscGas,3205.680,32056.800
! <Shadowing/Sun Position Calculations Annual Simulations>, Shading Calculation Method, Shading Calculation Update Frequency Method, Shading Calculation Update Frequency {days}, Maximum Figures in Shadow Overlap Calculations {}, Polygon Clipping Algorithm, Pixel Counting Resolution, Sky Diffuse Modeling Algorithm, Output External Shading Calculation Results, Disable Self-Shading Within Shading Zone Groups, Disable Self-Shading From Shading Zone Groups to Other Zones
Shadowing/Sun Position Calculations Annual Simulations,PolygonClipping,Periodic,7,15000,SutherlandHodgman,512,SimpleSkyDiffuseModeling,No,No,No
! <#Refrigeration Compressor Racks>,Number of Refrigeration Compressor Racks
! <Refrigeration Compressor Rack>,Compressor Rack Name, # Refrigerated Cases Connected,# WalkIn Coolers Connected, Heat Rejection Location, Condenser Type, COP
!  <Refrigeration Case>,Refrigeration Case Number, Refrigeration Case Name,Zone Name,Zone Node #,Zone Node Name,Capacity (W/m),LHR,Temperature (C),Length (m),Fan (W/m),Installed Lighting (W/m),Anti-Sweat (W/m),Defrost (W/m)
#Refrigeration Compressor Racks, 2
 Refrigeration Compressor Rack,RACK1,1,0,Outdoors,Air-Cooled,1.500
   Refrigeration Case,1,KITCHEN_ZN_1_FLR_1_CASE:1_WALKINFREEZER,KITCHEN_ZN_1_FLR_1,181,KITCHEN_ZN_1_FLR_1 AIR NODE,734.0,0.10,-23.0,3.7,68.3,33.0,0.0,547.0
 Refrigeration Compressor Rack,RACK2,1,0,Outdoors,Air-Cooled,3.000
   Refrigeration Case,2,KITCHEN_ZN_1_FLR_1_CASE:2_SELFCONTAINEDDISPLAYCASE,KITCHEN_ZN_1_FLR_1,181,KITCHEN_ZN_1_FLR_1 AIR NODE,734.0,8.00E-002,2.0,3.7,55.0,33.0,0.0,0.0
! <Water Heater Information>,Type,Name,Volume {m3},Maximum Capacity {W},Standard Rated Recovery Efficiency, Standard Rated Energy Factor
! <ZoneInfiltration Airflow Stats Nominal>,Name,Schedule Name,Zone Name, Zone Floor Area {m2}, # Zone Occupants,Design Volume Flow Rate {m3/s},Volume Flow Rate/Floor Area {m3/s-m2},Volume Flow Rate/Exterior Surface Area {m3/s-m2},ACH - Air Changes per Hour,Equation A - Constant Term Coefficient {},Equation B - Temperature Term Coefficient {1/C},Equation C - Velocity Term Coefficient {s/m}, Equation D - Velocity Squared Term Coefficient {s2/m2}
 ZoneInfiltration Airflow Stats Nominal, BATH_ZN_1_FLR_1_INFILTRATION,INFIL_SCH,BATH_ZN_1_FLR_1,190.00,19.0,1.208E-002,6.358E-005,5.252E-005,5.722E-002,1.000,0.000,0.000,0.000
 ZoneInfiltration Airflow Stats Nominal, CAFETERIA_ZN_1_FLR_1_INFILTRATION,INFIL_SCH,CAFETERIA_ZN_1_FLR_1,315.00,226.6,4.349E-002,1.381E-004,9.475E-005,0.124,1.000,0.000,0.000,0.000
 ZoneInfiltration Airflow Stats Nominal, COMPUTER_CLASS_ZN_1_FLR_1_INFILTRATION,INFIL_SCH,COMPUTER_CLASS_ZN_1_FLR_1,162.00,48.6,2.174E-002,1.342E-004,9.292E-005,0.121,1.000,0.000,0.000,0.000
 ZoneInfiltration Airflow Stats Nominal, CORNER_CLASS_1_POD_1_ZN_1_FLR_1_INFILTRATION,INFIL_SCH,CORNER_CLASS_1_POD_1_ZN_1_FLR_1,99.00,24.8,2.416E-002,2.440E-004,1.350E-004,0.220,1.000,0.000,0.000,0.000
 ZoneInfiltration Airflow Stats Nominal, CORNER_CLASS_1_POD_2_ZN_1_FLR_1_INFILTRATION,INFIL_SCH,CORNER_CLASS_1_POD_2_ZN_1_FLR_1,99.00,24.8,2.416E-002,2.440E-004,1.350E-004,0.220,1.000,0.000,0.000,0.000
 ZoneInfiltration Airflow Stats Nominal, CORNER_CLASS_1_POD_3_ZN_1_FLR_1_INFILTRATION,INFIL_SCH,CORNER_CLASS_1_POD_3_ZN_1_FLR_1,99.00,24.8,2.416E-002,2.440E-004,1.350E-004,0.220,1.000,0.000,0.000,0.000
 ZoneInfiltration Airflow Stats Nominal, CORNER_CLASS_2_POD_1_ZN_1_FLR_1_INFILTRATION,INFIL_SCH,CORNER_CLASS_2_POD_1_ZN_1_FLR_1,99.00,24.8,2.416E-002,2.440E-004,1.350E-004,0.220,1.000,0.000,0.000,0.000
 ZoneInfiltration Airflow Stats Nominal, CORNER_CLASS_2_POD_2_ZN_1_FLR_1_INFILTRATION,INFIL_SCH,CORNER_CLASS_2_POD_2_ZN_1_FLR_1,99.00,24.8,2.416E-002,2.440E-004,1.350E-004,0.220,1.000,0.000,0.000,0.000
 ZoneInfiltration Airflow Stats Nominal, CORNER_CLASS_2_POD_3_ZN_1_FLR_1_INFILTRATION,INFIL_SCH,CORNER_CLASS_2_POD_3_ZN_1_FLR_1,99.00,24.8,2.416E-002,2.440E-004,1.350E-004,0.220,1.000,0.000,0.000,0.000
 ZoneInfiltration Airflow Stats Nominal, CORRIDOR_POD_1_ZN_1_FLR_1_INFILTRATION,INFIL_SCH,CORRIDOR_POD_1_ZN_1_FLR_1,192.00,19.2,3.624E-003,1.888E-005,1.776E-005,1.699E-002,1.000,0.000,0.000,0.000
 ZoneInfiltration Airflow Stats Nominal, CORRIDOR_POD_2_ZN_1_FLR_1_INFILTRATION,INFIL_SCH,CORRIDOR_POD_2_ZN_1_FLR_1,192.00,19.2,3.624E-003,1.888E-005,1.776E-005,1.699E-002,1.000,0.000,0.000,0.000
 ZoneInfiltration Airflow Stats Nominal, CORRIDOR_POD_3_ZN_1_FLR_1_INFILTRATION,INFIL_SCH,CORRIDOR_POD_3_ZN_1_FLR_1,192.00,19.2,3.624E-003,1.888E-005,1.776E-005,1.699E-002,1.000,0.000,0.000,0.000
 ZoneInfiltration Airflow Stats Nominal, GYM_ZN_1_FLR_1_INFILTRATION,INFIL_SCH,GYM_ZN_1_FLR_1,357.00,107.2,2.054E-002,5.752E-005,4.832E-005,5.177E-002,1.000,0.000,0.000,0.000
 ZoneInfiltration Airflow Stats Nominal, KITCHEN_ZN_1_FLR_1_INFILTRATION,INFIL_SCH,KITCHEN_ZN_1_FLR_1,168.00,25.2,9.664E-003,5.752E-005,4.832E-005,5.177E-002,1.000,0.000,0.000,0.000
 ZoneInfiltration Airflow Stats Nominal, LIBRARY_MEDIA_CENTER_ZN_1_FLR_1_INFILTRATION,INFIL_SCH,LIBRARY_MEDIA_CENTER_ZN_1_FLR_1,399.00,91.7,4.832E-002,1.211E-004,8.644E-005,0.109,1.000,0.000,0.000,0.000
 ZoneInfiltration Airflow Stats Nominal, LOBBY_ZN_1_FLR_1_INFILTRATION,INFIL_SCH,LOBBY_ZN_1_FLR_1,171.00,0.0,2.295E-002,1.342E-004,9.292E-005,0.121,1.000,0.000,0.000,0.000
 ZoneInfiltration Airflow Stats Nominal, MAIN_CORRIDOR_ZN_1_FLR_1_INFILTRATION,INFIL_SCH,MAIN_CORRIDOR_ZN_1_FLR_1,546.00,54.6,1.087E-002,1.991E-005,1.868E-005,1.792E-002,1.000,0.000,0.000,0.000
 ZoneInfiltration Airflow Stats Nominal, MULT_CLASS_1_POD_1_ZN_1_FLR_1_INFILTRATION,INFIL_SCH,MULT_CLASS_1_POD_1_ZN_1_FLR_1,477.00,119.3,6.402E-002,1.342E-004,9.292E-005,0.121,1.000,0.000,0.000,0.000
 ZoneInfiltration Airflow Stats Nominal, MULT_CLASS_1_POD_2_ZN_1_FLR_1_INFILTRATION,INFIL_SCH,MULT_CLASS_1_POD_2_ZN_1_FLR_1,477.00,119.3,6.402E-002,1.342E-004,9.292E-005,0.121,1.000,0.000,0.000,0.000
 ZoneInfiltration Airflow Stats Nominal, MULT_CLASS_1_POD_3_ZN_1_FLR_1_INFILTRATION,INFIL_SCH,MULT_CLASS_1_POD_3_ZN_1_FLR_1,477.00,119.3,6.402E-002,1.342E-004,9.292E-005,0.121,1.000,0.000,0.000,0.000
 ZoneInfiltration Airflow Stats Nominal, MULT_CLASS_2_POD_1_ZN_1_FLR_1_INFILTRATION,INFIL_SCH,MULT_CLASS_2_POD_1_ZN_1_FLR_1,477.00,119.3,6.402E-002,1.342E-004,9.292E-005,0.121,1.000,0.000,0.000,0.000
 ZoneInfiltration Airflow Stats Nominal, MULT_CLASS_2_POD_2_ZN_1_FLR_1_INFILTRATION,INFIL_SCH,MULT_CLASS_2_POD_2_ZN_1_FLR_1,477.00,119.3,6.402E-002,1.342E-004,9.292E-005,0.121,1.000,0.000,0.000,0.000
 ZoneInfiltration Airflow Stats Nominal, MULT_CLASS_2_POD_3_ZN_1_FLR_1_INFILTRATION,INFIL_SCH,MULT_CLASS_2_POD_3_ZN_1_FLR_1,315.00,78.8,4.228E-002,1.342E-004,9.292E-005,0.121,1.000,0.000,0.000,0.000
 ZoneInfiltration Airflow Stats Nominal, OFFICES_ZN_1_FLR_1_INFILTRATION,INFIL_SCH,OFFICES_ZN_1_FLR_1,441.00,22.1,5.074E-002,1.150E-004,8.331E-005,0.104,1.000,0.000,0.000,0.000
! <Mixing Airflow Stats Nominal>,Name,Schedule Name,Zone Name, Zone Floor Area {m2}, # Zone Occupants,Design Volume Flow Rate {m3/s},Volume Flow Rate/Floor Area {m3/s-m2},Volume Flow Rate/person Area {m3/s-person},ACH - Air Changes per Hour,From/Source Zone,Delta Temperature {C}
 Mixing Airflow Stats Nominal, KITCHEN_ZN_1_FLR_1 EXHAUST FANMIXING_0,HVACOPERATIONSCHD,KITCHEN_ZN_1_FLR_1,168.00,25.2,1.355,8.068E-003,5.379E-002,7.261,CAFETERIA_ZN_1_FLR_1,0.00
! <AirFlow Model>, Simple
 AirFlow Model, Simple
! <RoomAir Model>, Zone Name, Mixing/Mundt/UCSDDV/UCSDCV/UCSDUFI/UCSDUFE/User Defined
RoomAir Model,BATH_ZN_1_FLR_1,Mixing/Well-Stirred
RoomAir Model,CAFETERIA_ZN_1_FLR_1,Mixing/Well-Stirred
RoomAir Model,COMPUTER_CLASS_ZN_1_FLR_1,Mixing/Well-Stirred
RoomAir Model,CORNER_CLASS_1_POD_1_ZN_1_FLR_1,Mixing/Well-Stirred
RoomAir Model,CORNER_CLASS_1_POD_2_ZN_1_FLR_1,Mixing/Well-Stirred
RoomAir Model,CORNER_CLASS_1_POD_3_ZN_1_FLR_1,Mixing/Well-Stirred
RoomAir Model,CORNER_CLASS_2_POD_1_ZN_1_FLR_1,Mixing/Well-Stirred
RoomAir Model,CORNER_CLASS_2_POD_2_ZN_1_FLR_1,Mixing/Well-Stirred
RoomAir Model,CORNER_CLASS_2_POD_3_ZN_1_FLR_1,Mixing/Well-Stirred
RoomAir Model,CORRIDOR_POD_1_ZN_1_FLR_1,Mixing/Well-Stirred
RoomAir Model,CORRIDOR_POD_2_ZN_1_FLR_1,Mixing/Well-Stirred
RoomAir Model,CORRIDOR_POD_3_ZN_1_FLR_1,Mixing/Well-Stirred
RoomAir Model,GYM_ZN_1_FLR_1,Mixing/Well-Stirred
RoomAir Model,KITCHEN_ZN_1_FLR_1,Mixing/Well-Stirred
RoomAir Model,LIBRARY_MEDIA_CENTER_ZN_1_FLR_1,Mixing/Well-Stirred
RoomAir Model,LOBBY_ZN_1_FLR_1,Mixing/Well-Stirred
RoomAir Model,MAIN_CORRIDOR_ZN_1_FLR_1,Mixing/Well-Stirred
RoomAir Model,MECH_ZN_1_FLR_1,Mixing/Well-Stirred
RoomAir Model,MULT_CLASS_1_POD_1_ZN_1_FLR_1,Mixing/Well-Stirred
RoomAir Model,MULT_CLASS_1_POD_2_ZN_1_FLR_1,Mixing/Well-Stirred
RoomAir Model,MULT_CLASS_1_POD_3_ZN_1_FLR_1,Mixing/Well-Stirred
RoomAir Model,MULT_CLASS_2_POD_1_ZN_1_FLR_1,Mixing/Well-Stirred
RoomAir Model,MULT_CLASS_2_POD_2_ZN_1_FLR_1,Mixing/Well-Stirred
RoomAir Model,MULT_CLASS_2_POD_3_ZN_1_FLR_1,Mixing/Well-Stirred
RoomAir Model,OFFICES_ZN_1_FLR_1,Mixing/Well-Stirred
! <AirflowNetwork Model:Control>, No Multizone or Distribution/Multizone with Distribution/Multizone without Distribution/Multizone with Distribution only during Fan Operation
AirflowNetwork Model:Control,NoMultizoneOrDistribution
! <Zone Volume Capacitance Multiplier>, Sensible Heat Capacity Multiplier, Moisture Capacity Multiplier, Carbon Dioxide Capacity Multiplier, Generic Contaminant Capacity Multiplier
Zone Volume Capacitance Multiplier,   1.000 ,   1.000,   1.000,   1.000
! <Load Timesteps in Zone Design Calculation Averaging Window>, Value
 Load Timesteps in Zone Design Calculation Averaging Window,    6
! <Heating Sizing Factor Information>, Sizing Factor ID, Value
 Heating Sizing Factor Information, Global,   1.5000    
 Heating Sizing Factor Information, Zone BATH_ZN_1_FLR_1,   1.5000    
 Heating Sizing Factor Information, Zone CAFETERIA_ZN_1_FLR_1,   1.5000    
 Heating Sizing Factor Information, Zone COMPUTER_CLASS_ZN_1_FLR_1,   1.5000    
 Heating Sizing Factor Information, Zone CORNER_CLASS_1_POD_1_ZN_1_FLR_1,   1.5000    
 Heating Sizing Factor Information, Zone CORNER_CLASS_1_POD_2_ZN_1_FLR_1,   1.5000    
 Heating Sizing Factor Information, Zone CORNER_CLASS_1_POD_3_ZN_1_FLR_1,   1.5000    
 Heating Sizing Factor Information, Zone CORNER_CLASS_2_POD_1_ZN_1_FLR_1,   1.5000    
 Heating Sizing Factor Information, Zone CORNER_CLASS_2_POD_2_ZN_1_FLR_1,   1.5000    
 Heating Sizing Factor Information, Zone CORNER_CLASS_2_POD_3_ZN_1_FLR_1,   1.5000    
 Heating Sizing Factor Information, Zone CORRIDOR_POD_1_ZN_1_FLR_1,   1.5000    
 Heating Sizing Factor Information, Zone CORRIDOR_POD_2_ZN_1_FLR_1,   1.5000    
 Heating Sizing Factor Information, Zone CORRIDOR_POD_3_ZN_1_FLR_1,   1.5000    
 Heating Sizing Factor Information, Zone GYM_ZN_1_FLR_1,   1.5000    
 Heating Sizing Factor Information, Zone KITCHEN_ZN_1_FLR_1,   1.5000    
 Heating Sizing Factor Information, Zone LIBRARY_MEDIA_CENTER_ZN_1_FLR_1,   1.5000    
 Heating Sizing Factor Information, Zone LOBBY_ZN_1_FLR_1,   1.5000    
 Heating Sizing Factor Information, Zone MAIN_CORRIDOR_ZN_1_FLR_1,   1.5000    
 Heating Sizing Factor Information, Zone MECH_ZN_1_FLR_1,   1.5000    
 Heating Sizing Factor Information, Zone MULT_CLASS_1_POD_1_ZN_1_FLR_1,   1.5000    
 Heating Sizing Factor Information, Zone MULT_CLASS_1_POD_2_ZN_1_FLR_1,   1.5000    
 Heating Sizing Factor Information, Zone MULT_CLASS_1_POD_3_ZN_1_FLR_1,   1.5000    
 Heating Sizing Factor Information, Zone MULT_CLASS_2_POD_1_ZN_1_FLR_1,   1.5000    
 Heating Sizing Factor Information, Zone MULT_CLASS_2_POD_2_ZN_1_FLR_1,   1.5000    
 Heating Sizing Factor Information, Zone MULT_CLASS_2_POD_3_ZN_1_FLR_1,   1.5000    
 Heating Sizing Factor Information, Zone OFFICES_ZN_1_FLR_1,   1.5000    
! <Cooling Sizing Factor Information>, Sizing Factor ID, Value
 Cooling Sizing Factor Information, Global,   1.5000    
 Cooling Sizing Factor Information, Zone BATH_ZN_1_FLR_1,   1.5000    
 Cooling Sizing Factor Information, Zone CAFETERIA_ZN_1_FLR_1,   1.5000    
 Cooling Sizing Factor Information, Zone COMPUTER_CLASS_ZN_1_FLR_1,   1.5000    
 Cooling Sizing Factor Information, Zone CORNER_CLASS_1_POD_1_ZN_1_FLR_1,   1.5000    
 Cooling Sizing Factor Information, Zone CORNER_CLASS_1_POD_2_ZN_1_FLR_1,   1.5000    
 Cooling Sizing Factor Information, Zone CORNER_CLASS_1_POD_3_ZN_1_FLR_1,   1.5000    
 Cooling Sizing Factor Information, Zone CORNER_CLASS_2_POD_1_ZN_1_FLR_1,   1.5000    
 Cooling Sizing Factor Information, Zone CORNER_CLASS_2_POD_2_ZN_1_FLR_1,   1.5000    
 Cooling Sizing Factor Information, Zone CORNER_CLASS_2_POD_3_ZN_1_FLR_1,   1.5000    
 Cooling Sizing Factor Information, Zone CORRIDOR_POD_1_ZN_1_FLR_1,   1.5000    
 Cooling Sizing Factor Information, Zone CORRIDOR_POD_2_ZN_1_FLR_1,   1.5000    
 Cooling Sizing Factor Information, Zone CORRIDOR_POD_3_ZN_1_FLR_1,   1.5000    
 Cooling Sizing Factor Information, Zone GYM_ZN_1_FLR_1,   1.5000    
 Cooling Sizing Factor Information, Zone KITCHEN_ZN_1_FLR_1,   1.5000    
 Cooling Sizing Factor Information, Zone LIBRARY_MEDIA_CENTER_ZN_1_FLR_1,   1.5000    
 Cooling Sizing Factor Information, Zone LOBBY_ZN_1_FLR_1,   1.5000    
 Cooling Sizing Factor Information, Zone MAIN_CORRIDOR_ZN_1_FLR_1,   1.5000    
 Cooling Sizing Factor Information, Zone MECH_ZN_1_FLR_1,   1.5000    
 Cooling Sizing Factor Information, Zone MULT_CLASS_1_POD_1_ZN_1_FLR_1,   1.5000    
 Cooling Sizing Factor Information, Zone MULT_CLASS_1_POD_2_ZN_1_FLR_1,   1.5000    
 Cooling Sizing Factor Information, Zone MULT_CLASS_1_POD_3_ZN_1_FLR_1,   1.5000    
 Cooling Sizing Factor Information, Zone MULT_CLASS_2_POD_1_ZN_1_FLR_1,   1.5000    
 Cooling Sizing Factor Information, Zone MULT_CLASS_2_POD_2_ZN_1_FLR_1,   1.5000    
 Cooling Sizing Factor Information, Zone MULT_CLASS_2_POD_3_ZN_1_FLR_1,   1.5000    
 Cooling Sizing Factor Information, Zone OFFICES_ZN_1_FLR_1,   1.5000    
! <Zone Sizing Information>, Zone Name, Load Type, Calc Des Load {W}, User Des Load {W}, Calc Des Air Flow Rate {m3/s}, User Des Air Flow Rate {m3/s}, Design Day Name, Date/Time of Peak, Temperature at Peak {C}, Humidity Ratio at Peak {kgWater/kgDryAir}, Floor Area {m2}, # Occupants, Calc Outdoor Air Flow Rate {m3/s}, Calc DOAS Heat Addition Rate {W}
 Zone Sizing Information, BATH_ZN_1_FLR_1, Cooling, 4509.17180, 6763.75769, 0.35947, 0.53920, CHICAGO ANN CLG .4% CONDNS WB=>MDB, 7/21 17:10:00, 29.52367, 1.87945E-002, 190.00000, 19.00000, 0.47500, 0.00000
 Zone Sizing Information, BATH_ZN_1_FLR_1, Heating, 11478.30168, 17217.45252, 0.34029, 0.51044, CHICAGO ANN HTG 99.6% CONDNS DB, 1/21 06:30:00, -20.60000, 6.12575E-004, 190.00000, 19.00000, 0.47500, 0.00000
 Zone Sizing Information, CAFETERIA_ZN_1_FLR_1, Cooling, 9672.55376, 14508.83064, 0.77135, 2.26619, CHICAGO ANN CLG .4% CONDNS WB=>MDB, 7/21 15:00:00, 31.20000, 1.87978E-002, 315.00000, 226.61871, 2.26619, 0.00000
 Zone Sizing Information, CAFETERIA_ZN_1_FLR_1, Heating, 12473.10216, 18709.65324, 0.38431, 2.26619, CHICAGO ANN HTG 99.6% CONDNS DB, 1/21 06:10:00, -20.60000, 6.12575E-004, 315.00000, 226.61871, 2.26619, 0.00000
 Zone Sizing Information, COMPUTER_CLASS_ZN_1_FLR_1, Cooling, 4465.82797, 6698.74196, 0.35604, 0.53406, CHICAGO ANN CLG .4% CONDNS WB=>MDB, 7/21 17:00:00, 29.70200, 1.87949E-002, 162.00000, 48.64865, 0.38919, 0.00000
 Zone Sizing Information, COMPUTER_CLASS_ZN_1_FLR_1, Heating, 5638.69243, 8458.03864, 0.17374, 0.38919, CHICAGO ANN HTG 99.6% CONDNS DB, 1/21 06:10:00, -20.60000, 6.12575E-004, 162.00000, 48.64865, 0.38919, 0.00000
 Zone Sizing Information, CORNER_CLASS_1_POD_1_ZN_1_FLR_1, Cooling, 4854.34120, 7281.51179, 0.38703, 0.58054, CHICAGO ANN CLG .4% CONDNS WB=>MDB, 7/21 17:00:00, 29.70200, 1.87949E-002, 99.00000, 24.75000, 0.19800, 0.00000
 Zone Sizing Information, CORNER_CLASS_1_POD_1_ZN_1_FLR_1, Heating, 5680.62956, 8520.94435, 0.17501, 0.26252, CHICAGO ANN HTG 99.6% CONDNS DB, 1/21 06:05:00, -20.60000, 6.12575E-004, 99.00000, 24.75000, 0.19800, 0.00000
 Zone Sizing Information, CORNER_CLASS_1_POD_2_ZN_1_FLR_1, Cooling, 4792.14934, 7188.22400, 0.38207, 0.57311, CHICAGO ANN CLG .4% CONDNS WB=>MDB, 7/21 17:00:00, 29.70200, 1.87949E-002, 99.00000, 24.75000, 0.19800, 0.00000
 Zone Sizing Information, CORNER_CLASS_1_POD_2_ZN_1_FLR_1, Heating, 5662.57222, 8493.85833, 0.17446, 0.26169, CHICAGO ANN HTG 99.6% CONDNS DB, 1/21 06:05:00, -20.60000, 6.12575E-004, 99.00000, 24.75000, 0.19800, 0.00000
 Zone Sizing Information, CORNER_CLASS_1_POD_3_ZN_1_FLR_1, Cooling, 4798.77536, 7198.16303, 0.38260, 0.57390, CHICAGO ANN CLG .4% CONDNS WB=>MDB, 7/21 17:00:00, 29.70200, 1.87949E-002, 99.00000, 24.75000, 0.19800, 0.00000
 Zone Sizing Information, CORNER_CLASS_1_POD_3_ZN_1_FLR_1, Heating, 5660.36358, 8490.54536, 0.17439, 0.26158, CHICAGO ANN HTG 99.6% CONDNS DB, 1/21 06:05:00, -20.60000, 6.12575E-004, 99.00000, 24.75000, 0.19800, 0.00000
 Zone Sizing Information, CORNER_CLASS_2_POD_1_ZN_1_FLR_1, Cooling, 4741.68996, 7112.53494, 0.37805, 0.56707, CHICAGO ANN CLG .4% CONDNS WB=>MDB, 7/21 17:00:00, 29.70200, 1.87949E-002, 99.00000, 24.75000, 0.19800, 0.00000
 Zone Sizing Information, CORNER_CLASS_2_POD_1_ZN_1_FLR_1, Heating, 5652.95771, 8479.43657, 0.17416, 0.26124, CHICAGO ANN HTG 99.6% CONDNS DB, 1/21 06:05:00, -20.60000, 6.12575E-004, 99.00000, 24.75000, 0.19800, 0.00000
 Zone Sizing Information, CORNER_CLASS_2_POD_2_ZN_1_FLR_1, Cooling, 4745.24513, 7117.86769, 0.37833, 0.56750, CHICAGO ANN CLG .4% CONDNS WB=>MDB, 7/21 17:00:00, 29.70200, 1.87949E-002, 99.00000, 24.75000, 0.19800, 0.00000
 Zone Sizing Information, CORNER_CLASS_2_POD_2_ZN_1_FLR_1, Heating, 5654.49094, 8481.73641, 0.17421, 0.26131, CHICAGO ANN HTG 99.6% CONDNS DB, 1/21 06:05:00, -20.60000, 6.12575E-004, 99.00000, 24.75000, 0.19800, 0.00000
 Zone Sizing Information, CORNER_CLASS_2_POD_3_ZN_1_FLR_1, Cooling, 4803.88782, 7205.83173, 0.38301, 0.57451, CHICAGO ANN CLG .4% CONDNS WB=>MDB, 7/21 17:00:00, 29.70200, 1.87949E-002, 99.00000, 24.75000, 0.19800, 0.00000
 Zone Sizing Information, CORNER_CLASS_2_POD_3_ZN_1_FLR_1, Heating, 5667.09405, 8500.64107, 0.17460, 0.26189, CHICAGO ANN HTG 99.6% CONDNS DB, 1/21 06:05:00, -20.60000, 6.12575E-004, 99.00000, 24.75000, 0.19800, 0.00000
 Zone Sizing Information, CORRIDOR_POD_1_ZN_1_FLR_1, Cooling, 3486.53421, 5229.80131, 0.27794, 0.41691, CHICAGO ANN CLG .4% CONDNS WB=>MDB, 7/21 17:00:00, 29.70200, 1.87949E-002, 192.00000, 19.20000, 9.60000E-002, 0.00000
 Zone Sizing Information, CORRIDOR_POD_1_ZN_1_FLR_1, Heating, 9127.54693, 13691.32039, 0.27304, 0.40957, CHICAGO ANN HTG 99.6% CONDNS DB, 1/21 06:30:00, -20.60000, 6.12575E-004, 192.00000, 19.20000, 9.60000E-002, 0.00000
 Zone Sizing Information, CORRIDOR_POD_2_ZN_1_FLR_1, Cooling, 3454.97755, 5182.46633, 0.27542, 0.41313, CHICAGO ANN CLG .4% CONDNS WB=>MDB, 7/21 17:00:00, 29.70200, 1.87949E-002, 192.00000, 19.20000, 9.60000E-002, 0.00000
 Zone Sizing Information, CORRIDOR_POD_2_ZN_1_FLR_1, Heating, 9127.89256, 13691.83885, 0.27305, 0.40958, CHICAGO ANN HTG 99.6% CONDNS DB, 1/21 06:30:00, -20.60000, 6.12575E-004, 192.00000, 19.20000, 9.60000E-002, 0.00000
 Zone Sizing Information, CORRIDOR_POD_3_ZN_1_FLR_1, Cooling, 3513.80816, 5270.71224, 0.28011, 0.42017, CHICAGO ANN CLG .4% CONDNS WB=>MDB, 7/21 17:00:00, 29.70200, 1.87949E-002, 192.00000, 19.20000, 9.60000E-002, 0.00000
 Zone Sizing Information, CORRIDOR_POD_3_ZN_1_FLR_1, Heating, 9008.69693, 13513.04540, 0.26955, 0.40432, CHICAGO ANN HTG 99.6% CONDNS DB, 1/21 06:30:00, -20.60000, 6.12575E-004, 192.00000, 19.20000, 9.60000E-002, 0.00000
 Zone Sizing Information, GYM_ZN_1_FLR_1, Cooling, 10329.82979, 15494.74468, 0.82362, 1.23542, CHICAGO ANN CLG .4% CONDNS WB=>MDB, 7/21 15:10:00, 31.09300, 1.87976E-002, 357.00000, 107.20721, 1.07207, 0.00000
 Zone Sizing Information, GYM_ZN_1_FLR_1, Heating, 10226.69261, 15340.03891, 0.31511, 1.07207, CHICAGO ANN HTG 99.6% CONDNS DB, 1/21 06:10:00, -20.60000, 6.12575E-004, 357.00000, 107.20721, 1.07207, 0.00000
 Zone Sizing Information, KITCHEN_ZN_1_FLR_1, Cooling, 5288.51236, 7932.76855, 0.42174, 0.63261, CHICAGO ANN CLG .4% CONDNS WB=>MDB, 7/21 13:00:00, 30.66500, 1.87968E-002, 168.00000, 25.20000, 0.20160, 0.00000
 Zone Sizing Information, KITCHEN_ZN_1_FLR_1, Heating, 9648.54209, 14472.81313, 0.28550, 0.42825, CHICAGO ANN HTG 99.6% CONDNS DB, 1/21 06:30:00, -20.60000, 6.12575E-004, 168.00000, 25.20000, 0.20160, 0.00000
 Zone Sizing Information, LIBRARY_MEDIA_CENTER_ZN_1_FLR_1, Cooling, 9769.28465, 14653.92698, 0.77885, 1.16827, CHICAGO ANN CLG .4% CONDNS WB=>MDB, 7/21 16:55:00, 29.77333, 1.87950E-002, 399.00000, 91.72414, 0.73379, 0.00000
 Zone Sizing Information, LIBRARY_MEDIA_CENTER_ZN_1_FLR_1, Heating, 13371.19403, 20056.79105, 0.41198, 0.73379, CHICAGO ANN HTG 99.6% CONDNS DB, 1/21 06:05:00, -20.60000, 6.12575E-004, 399.00000, 91.72414, 0.73379, 0.00000
 Zone Sizing Information, LOBBY_ZN_1_FLR_1, Cooling, 3136.17229, 4704.25843, 0.25001, 0.37502, CHICAGO ANN CLG .4% CONDNS WB=>MDB, 7/21 16:40:00, 29.98733, 1.87954E-002, 171.00000, 0.00000, 8.55000E-002, 0.00000
 Zone Sizing Information, LOBBY_ZN_1_FLR_1, Heating, 6887.10730, 10330.66095, 0.21220, 0.31830, CHICAGO ANN HTG 99.6% CONDNS DB, 1/21 06:10:00, -20.60000, 6.12575E-004, 171.00000, 0.00000, 8.55000E-002, 0.00000
 Zone Sizing Information, MAIN_CORRIDOR_ZN_1_FLR_1, Cooling, 6968.28436, 10452.42654, 0.55550, 0.83325, CHICAGO ANN CLG .4% CONDNS WB=>MDB, 7/21 17:00:00, 29.70200, 1.87949E-002, 546.00000, 54.60000, 0.27300, 0.00000
 Zone Sizing Information, MAIN_CORRIDOR_ZN_1_FLR_1, Heating, 27329.46778, 40994.20167, 0.80521, 1.20781, CHICAGO ANN HTG 99.6% CONDNS DB, 1/21 06:30:00, -20.60000, 6.12575E-004, 546.00000, 54.60000, 0.27300, 0.00000
 Zone Sizing Information, MECH_ZN_1_FLR_1, Cooling, 3530.34965, 5295.52448, 0.28142, 0.42213, CHICAGO ANN CLG .4% CONDNS WB=>MDB, 7/21 17:00:00, 29.70200, 1.87949E-002, 252.00000, 0.00000, 6.30000E-002, 0.00000
 Zone Sizing Information, MECH_ZN_1_FLR_1, Heating, 9937.86709, 14906.80064, 0.29654, 0.44481, CHICAGO ANN HTG 99.6% CONDNS DB, 1/21 06:30:00, -20.60000, 6.12575E-004, 252.00000, 0.00000, 6.30000E-002, 0.00000
 Zone Sizing Information, MULT_CLASS_1_POD_1_ZN_1_FLR_1, Cooling, 12076.39695, 18114.59542, 0.96279, 1.44418, CHICAGO ANN CLG .4% CONDNS WB=>MDB, 7/21 16:40:00, 29.98733, 1.87954E-002, 477.00000, 119.25000, 0.95400, 0.00000
 Zone Sizing Information, MULT_CLASS_1_POD_1_ZN_1_FLR_1, Heating, 17319.21256, 25978.81885, 0.53363, 0.95400, CHICAGO ANN HTG 99.6% CONDNS DB, 1/21 06:10:00, -20.60000, 6.12575E-004, 477.00000, 119.25000, 0.95400, 0.00000
 Zone Sizing Information, MULT_CLASS_1_POD_2_ZN_1_FLR_1, Cooling, 11708.69427, 17563.04141, 0.93347, 1.40021, CHICAGO ANN CLG .4% CONDNS WB=>MDB, 7/21 16:40:00, 29.98733, 1.87954E-002, 477.00000, 119.25000, 0.95400, 0.00000
 Zone Sizing Information, MULT_CLASS_1_POD_2_ZN_1_FLR_1, Heating, 17338.04755, 26007.07132, 0.53421, 0.95400, CHICAGO ANN HTG 99.6% CONDNS DB, 1/21 06:10:00, -20.60000, 6.12575E-004, 477.00000, 119.25000, 0.95400, 0.00000
 Zone Sizing Information, MULT_CLASS_1_POD_3_ZN_1_FLR_1, Cooling, 11793.98967, 17690.98451, 0.94027, 1.41041, CHICAGO ANN CLG .4% CONDNS WB=>MDB, 7/21 16:40:00, 29.98733, 1.87954E-002, 477.00000, 119.25000, 0.95400, 0.00000
 Zone Sizing Information, MULT_CLASS_1_POD_3_ZN_1_FLR_1, Heating, 17186.34361, 25779.51541, 0.52953, 0.95400, CHICAGO ANN HTG 99.6% CONDNS DB, 1/21 06:10:00, -20.60000, 6.12575E-004, 477.00000, 119.25000, 0.95400, 0.00000
 Zone Sizing Information, MULT_CLASS_2_POD_1_ZN_1_FLR_1, Cooling, 11438.59034, 17157.88552, 0.91194, 1.36791, CHICAGO ANN CLG .4% CONDNS WB=>MDB, 7/21 17:00:00, 29.70200, 1.87949E-002, 477.00000, 119.25000, 0.95400, 0.00000
 Zone Sizing Information, MULT_CLASS_2_POD_1_ZN_1_FLR_1, Heating, 17262.56992, 25893.85488, 0.53188, 0.95400, CHICAGO ANN HTG 99.6% CONDNS DB, 1/21 06:10:00, -20.60000, 6.12575E-004, 477.00000, 119.25000, 0.95400, 0.00000
 Zone Sizing Information, MULT_CLASS_2_POD_2_ZN_1_FLR_1, Cooling, 11453.10523, 17179.65784, 0.91310, 1.36965, CHICAGO ANN CLG .4% CONDNS WB=>MDB, 7/21 17:00:00, 29.70200, 1.87949E-002, 477.00000, 119.25000, 0.95400, 0.00000
 Zone Sizing Information, MULT_CLASS_2_POD_2_ZN_1_FLR_1, Heating, 17269.72972, 25904.59458, 0.53210, 0.95400, CHICAGO ANN HTG 99.6% CONDNS DB, 1/21 06:10:00, -20.60000, 6.12575E-004, 477.00000, 119.25000, 0.95400, 0.00000
 Zone Sizing Information, MULT_CLASS_2_POD_3_ZN_1_FLR_1, Cooling, 7866.58508, 11799.87762, 0.62716, 0.94075, CHICAGO ANN CLG .4% CONDNS WB=>MDB, 7/21 17:00:00, 29.70200, 1.87949E-002, 315.00000, 78.75000, 0.63000, 0.00000
 Zone Sizing Information, MULT_CLASS_2_POD_3_ZN_1_FLR_1, Heating, 11399.86090, 17099.79136, 0.35124, 0.63000, CHICAGO ANN HTG 99.6% CONDNS DB, 1/21 06:10:00, -20.60000, 6.12575E-004, 315.00000, 78.75000, 0.63000, 0.00000
 Zone Sizing Information, OFFICES_ZN_1_FLR_1, Cooling, 9394.46681, 14091.70022, 0.74895, 1.12342, CHICAGO ANN CLG .4% CONDNS WB=>MDB, 7/21 16:30:00, 30.13000, 1.87957E-002, 441.00000, 22.05000, 0.22050, 0.00000
 Zone Sizing Information, OFFICES_ZN_1_FLR_1, Heating, 14643.49502, 21965.24252, 0.45119, 0.67678, CHICAGO ANN HTG 99.6% CONDNS DB, 1/21 06:05:00, -20.60000, 6.12575E-004, 441.00000, 22.05000, 0.22050, 0.00000
! <System Sizing Information>, System Name, Load Type, Peak Load Kind, User Design Capacity, Calc Des Air Flow Rate [m3/s], User Des Air Flow Rate [m3/s], Design Day Name, Date/Time of Peak
 System Sizing Information, PSZ-AC_1:6, Cooling, Sensible, 12462.81, 0.63261, 0.63261, CHICAGO ANN CLG .4% CONDNS WB=>MDB, 7/21 05:00:00
 System Sizing Information, PSZ-AC_1:6, Heating, Sensible, 28619.04, 0.42825, 0.42825, CHICAGO ANN HTG 99.6% CONDNS DB, 1/21 06:30:00
 System Sizing Information, PSZ-AC_2:5, Cooling, Sensible, 23643.72, 1.23542, 1.23542, CHICAGO ANN CLG .4% CONDNS WB=>MDB, 7/21 05:00:00
 System Sizing Information, PSZ-AC_2:5, Heating, Sensible, 71643.47, 1.07207, 1.07207, CHICAGO ANN HTG 99.6% CONDNS DB, 1/21 00:05:00
 System Sizing Information, PSZ-AC_2:7, Cooling, Sensible, 45982.60, 2.26619, 2.26619, CHICAGO ANN CLG .4% CONDNS WB=>MDB, 7/21 05:00:00
 System Sizing Information, PSZ-AC_2:7, Heating, Sensible, 151442.70, 2.26619, 2.26619, CHICAGO ANN HTG 99.6% CONDNS DB, 1/21 00:05:00
 System Sizing Information, VAV_OTHER, Cooling, Sensible, 76063.13, 4.99536, 4.99536, CHICAGO ANN CLG .4% CONDNS WB=>MDB, 7/21 00:00:00
 System Sizing Information, VAV_OTHER, Heating, Sensible, 82945.93, 4.28113, 4.28113, CHICAGO ANN HTG 99.6% CONDNS DB, 1/21 00:30:00
 System Sizing Information, VAV_POD_1, Cooling, Sensible, 77703.76, 4.94973, 4.94973, CHICAGO ANN CLG .4% CONDNS WB=>MDB, 7/21 00:00:00
 System Sizing Information, VAV_POD_1, Heating, Sensible, 104495.32, 3.10301, 3.10301, CHICAGO ANN HTG 99.6% CONDNS DB, 1/21 21:15:00
 System Sizing Information, VAV_POD_2, Cooling, Sensible, 60423.97, 3.75049, 3.75049, CHICAGO ANN CLG .4% CONDNS WB=>MDB, 7/21 00:00:00
 System Sizing Information, VAV_POD_2, Heating, Sensible, 88811.07, 2.57889, 2.57889, CHICAGO ANN HTG 99.6% CONDNS DB, 1/21 21:15:00
 System Sizing Information, VAV_POD_3, Cooling, Sensible, 61697.71, 3.91973, 3.91973, CHICAGO ANN CLG .4% CONDNS WB=>MDB, 7/21 00:00:00
 System Sizing Information, VAV_POD_3, Heating, Sensible, 83352.88, 2.51180, 2.51180, CHICAGO ANN HTG 99.6% CONDNS DB, 1/21 21:15:00
! <Component Sizing Information>, Component Type, Component Name, Input Field Description, Value
 Component Sizing Information, AirTerminal:SingleDuct:VAV:Reheat, BATH_ZN_1_FLR_1 VAV BOX COMPONENT, Design Size Maximum Air Flow Rate [m3/s], 0.53920
 Component Sizing Information, AirTerminal:SingleDuct:VAV:Reheat, BATH_ZN_1_FLR_1 VAV BOX COMPONENT, Design Size Constant Minimum Air Flow Fraction, 0.26851
 Component Sizing Information, AirTerminal:SingleDuct:VAV:Reheat, BATH_ZN_1_FLR_1 VAV BOX COMPONENT, User-Specified Constant Minimum Air Flow Fraction, 0.30000
 Component Sizing Information, AirTerminal:SingleDuct:VAV:Reheat, BATH_ZN_1_FLR_1 VAV BOX COMPONENT, Design Size Minimum Air Flow Rate [m3/s], 0.16176
 Component Sizing Information, AirTerminal:SingleDuct:VAV:Reheat, BATH_ZN_1_FLR_1 VAV BOX COMPONENT, Design Size Maximum Flow per Zone Floor Area during Reheat [m3/s-m2], 8.51371E-004
 Component Sizing Information, AirTerminal:SingleDuct:VAV:Reheat, BATH_ZN_1_FLR_1 VAV BOX COMPONENT, Design Size Maximum Flow Fraction during Reheat [], 0.30000
 Component Sizing Information, AirTerminal:SingleDuct:VAV:Reheat, BATH_ZN_1_FLR_1 VAV BOX COMPONENT, Design Size Maximum Reheat Water Flow Rate [m3/s], 4.30540E-004
 Component Sizing Information, AirTerminal:SingleDuct:VAV:Reheat, BATH_ZN_1_FLR_1 VAV BOX COMPONENT, Design Size Reheat Coil Sizing Air Volume Flow Rate [m3/s], 0.51044
 Component Sizing Information, AirTerminal:SingleDuct:VAV:Reheat, BATH_ZN_1_FLR_1 VAV BOX COMPONENT, Design Size Reheat Coil Sizing Inlet Air Temperature [C], 16.70000
 Component Sizing Information, AirTerminal:SingleDuct:VAV:Reheat, BATH_ZN_1_FLR_1 VAV BOX COMPONENT, Design Size Reheat Coil Sizing Inlet Air Humidity Ratio [kgWater/kgDryAir], 8.00000E-003
 Component Sizing Information, Coil:Heating:Water, BATH_ZN_1_FLR_1 VAV BOX REHEAT COIL, Design Size Rated Capacity [W], 19664.06790
 Component Sizing Information, Coil:Heating:Water, BATH_ZN_1_FLR_1 VAV BOX REHEAT COIL, Design Size Maximum Water Flow Rate [m3/s], 4.30540E-004
 Component Sizing Information, Coil:Heating:Water, BATH_ZN_1_FLR_1 VAV BOX REHEAT COIL, Design Size U-Factor Times Area Value [W/K], 489.50796
! <Water Heating Coil Capacity Information>,Component Type,Name,Nominal Total Capacity {W}
Water Heating Coil Capacity Information,Coil:Heating:Water,BATH_ZN_1_FLR_1 VAV BOX REHEAT COIL,10806.23
 Component Sizing Information, AirTerminal:SingleDuct:ConstantVolume:NoReheat, CAFETERIA_ZN_1_FLR_1 DIRECT AIR, Design Size Maximum Air Flow Rate [m3/s], 2.26619
 Component Sizing Information, AirTerminal:SingleDuct:VAV:Reheat, COMPUTER_CLASS_ZN_1_FLR_1 VAV BOX COMPONENT, Design Size Maximum Air Flow Rate [m3/s], 0.53406
 Component Sizing Information, AirTerminal:SingleDuct:VAV:Reheat, COMPUTER_CLASS_ZN_1_FLR_1 VAV BOX COMPONENT, Design Size Constant Minimum Air Flow Fraction, 0.23114
 Component Sizing Information, AirTerminal:SingleDuct:VAV:Reheat, COMPUTER_CLASS_ZN_1_FLR_1 VAV BOX COMPONENT, User-Specified Constant Minimum Air Flow Fraction, 0.30000
 Component Sizing Information, AirTerminal:SingleDuct:VAV:Reheat, COMPUTER_CLASS_ZN_1_FLR_1 VAV BOX COMPONENT, Design Size Minimum Air Flow Rate [m3/s], 0.16022
 Component Sizing Information, AirTerminal:SingleDuct:VAV:Reheat, COMPUTER_CLASS_ZN_1_FLR_1 VAV BOX COMPONENT, Design Size Maximum Flow per Zone Floor Area during Reheat [m3/s-m2], 9.89007E-004
 Component Sizing Information, AirTerminal:SingleDuct:VAV:Reheat, COMPUTER_CLASS_ZN_1_FLR_1 VAV BOX COMPONENT, Design Size Maximum Flow Fraction during Reheat [], 0.30000
 Component Sizing Information, AirTerminal:SingleDuct:VAV:Reheat, COMPUTER_CLASS_ZN_1_FLR_1 VAV BOX COMPONENT, Design Size Maximum Reheat Water Flow Rate [m3/s], 2.12582E-004
 Component Sizing Information, AirTerminal:SingleDuct:VAV:Reheat, COMPUTER_CLASS_ZN_1_FLR_1 VAV BOX COMPONENT, Design Size Reheat Coil Sizing Air Volume Flow Rate [m3/s], 0.26060
 Component Sizing Information, AirTerminal:SingleDuct:VAV:Reheat, COMPUTER_CLASS_ZN_1_FLR_1 VAV BOX COMPONENT, Design Size Reheat Coil Sizing Inlet Air Temperature [C], 16.70000
 Component Sizing Information, AirTerminal:SingleDuct:VAV:Reheat, COMPUTER_CLASS_ZN_1_FLR_1 VAV BOX COMPONENT, Design Size Reheat Coil Sizing Inlet Air Humidity Ratio [kgWater/kgDryAir], 8.00000E-003
 Component Sizing Information, Coil:Heating:Water, COMPUTER_CLASS_ZN_1_FLR_1 VAV BOX REHEAT COIL, Design Size Rated Capacity [W], 9709.26205
 Component Sizing Information, Coil:Heating:Water, COMPUTER_CLASS_ZN_1_FLR_1 VAV BOX REHEAT COIL, Design Size Maximum Water Flow Rate [m3/s], 2.12582E-004
 Component Sizing Information, Coil:Heating:Water, COMPUTER_CLASS_ZN_1_FLR_1 VAV BOX REHEAT COIL, Design Size U-Factor Times Area Value [W/K], 237.73226
Water Heating Coil Capacity Information,Coil:Heating:Water,COMPUTER_CLASS_ZN_1_FLR_1 VAV BOX REHEAT COIL,8111.74
 Component Sizing Information, AirTerminal:SingleDuct:VAV:Reheat, CORNER_CLASS_1_POD_1_ZN_1_FLR_1 VAV BOX COMPONENT, Design Size Maximum Air Flow Rate [m3/s], 0.58054
 Component Sizing Information, AirTerminal:SingleDuct:VAV:Reheat, CORNER_CLASS_1_POD_1_ZN_1_FLR_1 VAV BOX COMPONENT, Design Size Constant Minimum Air Flow Fraction, 0.20000
 Component Sizing Information, AirTerminal:SingleDuct:VAV:Reheat, CORNER_CLASS_1_POD_1_ZN_1_FLR_1 VAV BOX COMPONENT, User-Specified Constant Minimum Air Flow Fraction, 0.30000
 Component Sizing Information, AirTerminal:SingleDuct:VAV:Reheat, CORNER_CLASS_1_POD_1_ZN_1_FLR_1 VAV BOX COMPONENT, Design Size Minimum Air Flow Rate [m3/s], 0.17416
 Component Sizing Information, AirTerminal:SingleDuct:VAV:Reheat, CORNER_CLASS_1_POD_1_ZN_1_FLR_1 VAV BOX COMPONENT, Design Size Maximum Flow per Zone Floor Area during Reheat [m3/s-m2], 1.75922E-003
 Component Sizing Information, AirTerminal:SingleDuct:VAV:Reheat, CORNER_CLASS_1_POD_1_ZN_1_FLR_1 VAV BOX COMPONENT, Design Size Maximum Flow Fraction during Reheat [], 0.30000
 Component Sizing Information, AirTerminal:SingleDuct:VAV:Reheat, CORNER_CLASS_1_POD_1_ZN_1_FLR_1 VAV BOX COMPONENT, Design Size Maximum Reheat Water Flow Rate [m3/s], 2.14141E-004
 Component Sizing Information, AirTerminal:SingleDuct:VAV:Reheat, CORNER_CLASS_1_POD_1_ZN_1_FLR_1 VAV BOX COMPONENT, Design Size Reheat Coil Sizing Air Volume Flow Rate [m3/s], 0.26252
 Component Sizing Information, AirTerminal:SingleDuct:VAV:Reheat, CORNER_CLASS_1_POD_1_ZN_1_FLR_1 VAV BOX COMPONENT, Design Size Reheat Coil Sizing Inlet Air Temperature [C], 16.70000
 Component Sizing Information, AirTerminal:SingleDuct:VAV:Reheat, CORNER_CLASS_1_POD_1_ZN_1_FLR_1 VAV BOX COMPONENT, Design Size Reheat Coil Sizing Inlet Air Humidity Ratio [kgWater/kgDryAir], 8.00000E-003
 Component Sizing Information, Coil:Heating:Water, CORNER_CLASS_1_POD_1_ZN_1_FLR_1 VAV BOX REHEAT COIL, Design Size Rated Capacity [W], 9780.46862
 Component Sizing Information, Coil:Heating:Water, CORNER_CLASS_1_POD_1_ZN_1_FLR_1 VAV BOX REHEAT COIL, Design Size Maximum Water Flow Rate [m3/s], 2.14141E-004
 Component Sizing Information, Coil:Heating:Water, CORNER_CLASS_1_POD_1_ZN_1_FLR_1 VAV BOX REHEAT COIL, Design Size U-Factor Times Area Value [W/K], 239.47310
Water Heating Coil Capacity Information,Coil:Heating:Water,CORNER_CLASS_1_POD_1_ZN_1_FLR_1 VAV BOX REHEAT COIL,8454.08
 Component Sizing Information, AirTerminal:SingleDuct:VAV:Reheat, CORNER_CLASS_1_POD_2_ZN_1_FLR_1 VAV BOX COMPONENT, Design Size Maximum Air Flow Rate [m3/s], 0.57311
 Component Sizing Information, AirTerminal:SingleDuct:VAV:Reheat, CORNER_CLASS_1_POD_2_ZN_1_FLR_1 VAV BOX COMPONENT, Design Size Constant Minimum Air Flow Fraction, 0.20000
 Component Sizing Information, AirTerminal:SingleDuct:VAV:Reheat, CORNER_CLASS_1_POD_2_ZN_1_FLR_1 VAV BOX COMPONENT, User-Specified Constant Minimum Air Flow Fraction, 0.30000
 Component Sizing Information, AirTerminal:SingleDuct:VAV:Reheat, CORNER_CLASS_1_POD_2_ZN_1_FLR_1 VAV BOX COMPONENT, Design Size Minimum Air Flow Rate [m3/s], 0.17193
 Component Sizing Information, AirTerminal:SingleDuct:VAV:Reheat, CORNER_CLASS_1_POD_2_ZN_1_FLR_1 VAV BOX COMPONENT, Design Size Maximum Flow per Zone Floor Area during Reheat [m3/s-m2], 1.73669E-003
 Component Sizing Information, AirTerminal:SingleDuct:VAV:Reheat, CORNER_CLASS_1_POD_2_ZN_1_FLR_1 VAV BOX COMPONENT, Design Size Maximum Flow Fraction during Reheat [], 0.30000
 Component Sizing Information, AirTerminal:SingleDuct:VAV:Reheat, CORNER_CLASS_1_POD_2_ZN_1_FLR_1 VAV BOX COMPONENT, Design Size Maximum Reheat Water Flow Rate [m3/s], 2.13460E-004
 Component Sizing Information, AirTerminal:SingleDuct:VAV:Reheat, CORNER_CLASS_1_POD_2_ZN_1_FLR_1 VAV BOX COMPONENT, Design Size Reheat Coil Sizing Air Volume Flow Rate [m3/s], 0.26169
 Component Sizing Information, AirTerminal:SingleDuct:VAV:Reheat, CORNER_CLASS_1_POD_2_ZN_1_FLR_1 VAV BOX COMPONENT, Design Size Reheat Coil Sizing Inlet Air Temperature [C], 16.70000
 Component Sizing Information, AirTerminal:SingleDuct:VAV:Reheat, CORNER_CLASS_1_POD_2_ZN_1_FLR_1 VAV BOX COMPONENT, Design Size Reheat Coil Sizing Inlet Air Humidity Ratio [kgWater/kgDryAir], 8.00000E-003
 Component Sizing Information, Coil:Heating:Water, CORNER_CLASS_1_POD_2_ZN_1_FLR_1 VAV BOX REHEAT COIL, Design Size Rated Capacity [W], 9749.37250
 Component Sizing Information, Coil:Heating:Water, CORNER_CLASS_1_POD_2_ZN_1_FLR_1 VAV BOX REHEAT COIL, Design Size Maximum Water Flow Rate [m3/s], 2.13460E-004
 Component Sizing Information, Coil:Heating:Water, CORNER_CLASS_1_POD_2_ZN_1_FLR_1 VAV BOX REHEAT COIL, Design Size U-Factor Times Area Value [W/K], 238.71164
Water Heating Coil Capacity Information,Coil:Heating:Water,CORNER_CLASS_1_POD_2_ZN_1_FLR_1 VAV BOX REHEAT COIL,8391.73
 Component Sizing Information, AirTerminal:SingleDuct:VAV:Reheat, CORNER_CLASS_1_POD_3_ZN_1_FLR_1 VAV BOX COMPONENT, Design Size Maximum Air Flow Rate [m3/s], 0.57390
 Component Sizing Information, AirTerminal:SingleDuct:VAV:Reheat, CORNER_CLASS_1_POD_3_ZN_1_FLR_1 VAV BOX COMPONENT, Design Size Constant Minimum Air Flow Fraction, 0.20000
 Component Sizing Information, AirTerminal:SingleDuct:VAV:Reheat, CORNER_CLASS_1_POD_3_ZN_1_FLR_1 VAV BOX COMPONENT, User-Specified Constant Minimum Air Flow Fraction, 0.30000
 Component Sizing Information, AirTerminal:SingleDuct:VAV:Reheat, CORNER_CLASS_1_POD_3_ZN_1_FLR_1 VAV BOX COMPONENT, Design Size Minimum Air Flow Rate [m3/s], 0.17217
 Component Sizing Information, AirTerminal:SingleDuct:VAV:Reheat, CORNER_CLASS_1_POD_3_ZN_1_FLR_1 VAV BOX COMPONENT, Design Size Maximum Flow per Zone Floor Area during Reheat [m3/s-m2], 1.73909E-003
 Component Sizing Information, AirTerminal:SingleDuct:VAV:Reheat, CORNER_CLASS_1_POD_3_ZN_1_FLR_1 VAV BOX COMPONENT, Design Size Maximum Flow Fraction during Reheat [], 0.30000
 Component Sizing Information, AirTerminal:SingleDuct:VAV:Reheat, CORNER_CLASS_1_POD_3_ZN_1_FLR_1 VAV BOX COMPONENT, Design Size Maximum Reheat Water Flow Rate [m3/s], 2.13377E-004
 Component Sizing Information, AirTerminal:SingleDuct:VAV:Reheat, CORNER_CLASS_1_POD_3_ZN_1_FLR_1 VAV BOX COMPONENT, Design Size Reheat Coil Sizing Air Volume Flow Rate [m3/s], 0.26158
 Component Sizing Information, AirTerminal:SingleDuct:VAV:Reheat, CORNER_CLASS_1_POD_3_ZN_1_FLR_1 VAV BOX COMPONENT, Design Size Reheat Coil Sizing Inlet Air Temperature [C], 16.70000
 Component Sizing Information, AirTerminal:SingleDuct:VAV:Reheat, CORNER_CLASS_1_POD_3_ZN_1_FLR_1 VAV BOX COMPONENT, Design Size Reheat Coil Sizing Inlet Air Humidity Ratio [kgWater/kgDryAir], 8.00000E-003
 Component Sizing Information, Coil:Heating:Water, CORNER_CLASS_1_POD_3_ZN_1_FLR_1 VAV BOX REHEAT COIL, Design Size Rated Capacity [W], 9745.56911
 Component Sizing Information, Coil:Heating:Water, CORNER_CLASS_1_POD_3_ZN_1_FLR_1 VAV BOX REHEAT COIL, Design Size Maximum Water Flow Rate [m3/s], 2.13377E-004
 Component Sizing Information, Coil:Heating:Water, CORNER_CLASS_1_POD_3_ZN_1_FLR_1 VAV BOX REHEAT COIL, Design Size U-Factor Times Area Value [W/K], 238.61850
Water Heating Coil Capacity Information,Coil:Heating:Water,CORNER_CLASS_1_POD_3_ZN_1_FLR_1 VAV BOX REHEAT COIL,8394.94
 Component Sizing Information, AirTerminal:SingleDuct:VAV:Reheat, CORNER_CLASS_2_POD_1_ZN_1_FLR_1 VAV BOX COMPONENT, Design Size Maximum Air Flow Rate [m3/s], 0.56707
 Component Sizing Information, AirTerminal:SingleDuct:VAV:Reheat, CORNER_CLASS_2_POD_1_ZN_1_FLR_1 VAV BOX COMPONENT, Design Size Constant Minimum Air Flow Fraction, 0.20000
 Component Sizing Information, AirTerminal:SingleDuct:VAV:Reheat, CORNER_CLASS_2_POD_1_ZN_1_FLR_1 VAV BOX COMPONENT, User-Specified Constant Minimum Air Flow Fraction, 0.30000
 Component Sizing Information, AirTerminal:SingleDuct:VAV:Reheat, CORNER_CLASS_2_POD_1_ZN_1_FLR_1 VAV BOX COMPONENT, Design Size Minimum Air Flow Rate [m3/s], 0.17012
 Component Sizing Information, AirTerminal:SingleDuct:VAV:Reheat, CORNER_CLASS_2_POD_1_ZN_1_FLR_1 VAV BOX COMPONENT, Design Size Maximum Flow per Zone Floor Area during Reheat [m3/s-m2], 1.71840E-003
 Component Sizing Information, AirTerminal:SingleDuct:VAV:Reheat, CORNER_CLASS_2_POD_1_ZN_1_FLR_1 VAV BOX COMPONENT, Design Size Maximum Flow Fraction during Reheat [], 0.30000
 Component Sizing Information, AirTerminal:SingleDuct:VAV:Reheat, CORNER_CLASS_2_POD_1_ZN_1_FLR_1 VAV BOX COMPONENT, Design Size Maximum Reheat Water Flow Rate [m3/s], 2.13097E-004
 Component Sizing Information, AirTerminal:SingleDuct:VAV:Reheat, CORNER_CLASS_2_POD_1_ZN_1_FLR_1 VAV BOX COMPONENT, Design Size Reheat Coil Sizing Air Volume Flow Rate [m3/s], 0.26124
 Component Sizing Information, AirTerminal:SingleDuct:VAV:Reheat, CORNER_CLASS_2_POD_1_ZN_1_FLR_1 VAV BOX COMPONENT, Design Size Reheat Coil Sizing Inlet Air Temperature [C], 16.70000
 Component Sizing Information, AirTerminal:SingleDuct:VAV:Reheat, CORNER_CLASS_2_POD_1_ZN_1_FLR_1 VAV BOX COMPONENT, Design Size Reheat Coil Sizing Inlet Air Humidity Ratio [kgWater/kgDryAir], 8.00000E-003
 Component Sizing Information, Coil:Heating:Water, CORNER_CLASS_2_POD_1_ZN_1_FLR_1 VAV BOX REHEAT COIL, Design Size Rated Capacity [W], 9732.81505
 Component Sizing Information, Coil:Heating:Water, CORNER_CLASS_2_POD_1_ZN_1_FLR_1 VAV BOX REHEAT COIL, Design Size Maximum Water Flow Rate [m3/s], 2.13097E-004
 Component Sizing Information, Coil:Heating:Water, CORNER_CLASS_2_POD_1_ZN_1_FLR_1 VAV BOX REHEAT COIL, Design Size U-Factor Times Area Value [W/K], 238.30619
Water Heating Coil Capacity Information,Coil:Heating:Water,CORNER_CLASS_2_POD_1_ZN_1_FLR_1 VAV BOX REHEAT COIL,8344.96
 Component Sizing Information, AirTerminal:SingleDuct:VAV:Reheat, CORNER_CLASS_2_POD_2_ZN_1_FLR_1 VAV BOX COMPONENT, Design Size Maximum Air Flow Rate [m3/s], 0.56750
 Component Sizing Information, AirTerminal:SingleDuct:VAV:Reheat, CORNER_CLASS_2_POD_2_ZN_1_FLR_1 VAV BOX COMPONENT, Design Size Constant Minimum Air Flow Fraction, 0.20000
 Component Sizing Information, AirTerminal:SingleDuct:VAV:Reheat, CORNER_CLASS_2_POD_2_ZN_1_FLR_1 VAV BOX COMPONENT, User-Specified Constant Minimum Air Flow Fraction, 0.30000
 Component Sizing Information, AirTerminal:SingleDuct:VAV:Reheat, CORNER_CLASS_2_POD_2_ZN_1_FLR_1 VAV BOX COMPONENT, Design Size Minimum Air Flow Rate [m3/s], 0.17025
 Component Sizing Information, AirTerminal:SingleDuct:VAV:Reheat, CORNER_CLASS_2_POD_2_ZN_1_FLR_1 VAV BOX COMPONENT, Design Size Maximum Flow per Zone Floor Area during Reheat [m3/s-m2], 1.71969E-003
 Component Sizing Information, AirTerminal:SingleDuct:VAV:Reheat, CORNER_CLASS_2_POD_2_ZN_1_FLR_1 VAV BOX COMPONENT, Design Size Maximum Flow Fraction during Reheat [], 0.30000
 Component Sizing Information, AirTerminal:SingleDuct:VAV:Reheat, CORNER_CLASS_2_POD_2_ZN_1_FLR_1 VAV BOX COMPONENT, Design Size Maximum Reheat Water Flow Rate [m3/s], 2.13155E-004
 Component Sizing Information, AirTerminal:SingleDuct:VAV:Reheat, CORNER_CLASS_2_POD_2_ZN_1_FLR_1 VAV BOX COMPONENT, Design Size Reheat Coil Sizing Air Volume Flow Rate [m3/s], 0.26131
 Component Sizing Information, AirTerminal:SingleDuct:VAV:Reheat, CORNER_CLASS_2_POD_2_ZN_1_FLR_1 VAV BOX COMPONENT, Design Size Reheat Coil Sizing Inlet Air Temperature [C], 16.70000
 Component Sizing Information, AirTerminal:SingleDuct:VAV:Reheat, CORNER_CLASS_2_POD_2_ZN_1_FLR_1 VAV BOX COMPONENT, Design Size Reheat Coil Sizing Inlet Air Humidity Ratio [kgWater/kgDryAir], 8.00000E-003
 Component Sizing Information, Coil:Heating:Water, CORNER_CLASS_2_POD_2_ZN_1_FLR_1 VAV BOX REHEAT COIL, Design Size Rated Capacity [W], 9735.45539
 Component Sizing Information, Coil:Heating:Water, CORNER_CLASS_2_POD_2_ZN_1_FLR_1 VAV BOX REHEAT COIL, Design Size Maximum Water Flow Rate [m3/s], 2.13155E-004
 Component Sizing Information, Coil:Heating:Water, CORNER_CLASS_2_POD_2_ZN_1_FLR_1 VAV BOX REHEAT COIL, Design Size U-Factor Times Area Value [W/K], 238.37085
Water Heating Coil Capacity Information,Coil:Heating:Water,CORNER_CLASS_2_POD_2_ZN_1_FLR_1 VAV BOX REHEAT COIL,8348.98
 Component Sizing Information, AirTerminal:SingleDuct:VAV:Reheat, CORNER_CLASS_2_POD_3_ZN_1_FLR_1 VAV BOX COMPONENT, Design Size Maximum Air Flow Rate [m3/s], 0.57451
 Component Sizing Information, AirTerminal:SingleDuct:VAV:Reheat, CORNER_CLASS_2_POD_3_ZN_1_FLR_1 VAV BOX COMPONENT, Design Size Constant Minimum Air Flow Fraction, 0.20000
 Component Sizing Information, AirTerminal:SingleDuct:VAV:Reheat, CORNER_CLASS_2_POD_3_ZN_1_FLR_1 VAV BOX COMPONENT, User-Specified Constant Minimum Air Flow Fraction, 0.30000
 Component Sizing Information, AirTerminal:SingleDuct:VAV:Reheat, CORNER_CLASS_2_POD_3_ZN_1_FLR_1 VAV BOX COMPONENT, Design Size Minimum Air Flow Rate [m3/s], 0.17235
 Component Sizing Information, AirTerminal:SingleDuct:VAV:Reheat, CORNER_CLASS_2_POD_3_ZN_1_FLR_1 VAV BOX COMPONENT, Design Size Maximum Flow per Zone Floor Area during Reheat [m3/s-m2], 1.74094E-003
 Component Sizing Information, AirTerminal:SingleDuct:VAV:Reheat, CORNER_CLASS_2_POD_3_ZN_1_FLR_1 VAV BOX COMPONENT, Design Size Maximum Flow Fraction during Reheat [], 0.30000
[...]
 Component Sizing Information, AirTerminal:SingleDuct:VAV:Reheat, OFFICES_ZN_1_FLR_1 VAV BOX COMPONENT, User-Specified Constant Minimum Air Flow Fraction, 0.30000
 Component Sizing Information, AirTerminal:SingleDuct:VAV:Reheat, OFFICES_ZN_1_FLR_1 VAV BOX COMPONENT, Design Size Minimum Air Flow Rate [m3/s], 0.33703
 Component Sizing Information, AirTerminal:SingleDuct:VAV:Reheat, OFFICES_ZN_1_FLR_1 VAV BOX COMPONENT, Design Size Maximum Flow per Zone Floor Area during Reheat [m3/s-m2], 7.64235E-004
 Component Sizing Information, AirTerminal:SingleDuct:VAV:Reheat, OFFICES_ZN_1_FLR_1 VAV BOX COMPONENT, Design Size Maximum Flow Fraction during Reheat [], 0.30000
 Component Sizing Information, AirTerminal:SingleDuct:VAV:Reheat, OFFICES_ZN_1_FLR_1 VAV BOX COMPONENT, Design Size Maximum Reheat Water Flow Rate [m3/s], 5.52073E-004
 Component Sizing Information, AirTerminal:SingleDuct:VAV:Reheat, OFFICES_ZN_1_FLR_1 VAV BOX COMPONENT, Design Size Reheat Coil Sizing Air Volume Flow Rate [m3/s], 0.67678
 Component Sizing Information, AirTerminal:SingleDuct:VAV:Reheat, OFFICES_ZN_1_FLR_1 VAV BOX COMPONENT, Design Size Reheat Coil Sizing Inlet Air Temperature [C], 16.70000
 Component Sizing Information, AirTerminal:SingleDuct:VAV:Reheat, OFFICES_ZN_1_FLR_1 VAV BOX COMPONENT, Design Size Reheat Coil Sizing Inlet Air Humidity Ratio [kgWater/kgDryAir], 8.00000E-003
 Component Sizing Information, Coil:Heating:Water, OFFICES_ZN_1_FLR_1 VAV BOX REHEAT COIL, Design Size Rated Capacity [W], 25214.87731
 Component Sizing Information, Coil:Heating:Water, OFFICES_ZN_1_FLR_1 VAV BOX REHEAT COIL, Design Size Maximum Water Flow Rate [m3/s], 5.52073E-004
 Component Sizing Information, Coil:Heating:Water, OFFICES_ZN_1_FLR_1 VAV BOX REHEAT COIL, Design Size U-Factor Times Area Value [W/K], 617.39071
Water Heating Coil Capacity Information,Coil:Heating:Water,OFFICES_ZN_1_FLR_1 VAV BOX REHEAT COIL,18943.58
 Component Sizing Information, AirLoopHVAC, PSZ-AC_1:6, Sum of Air Terminal Maximum Heating Flow Rates [m3/s], 0.63261
 Component Sizing Information, AirLoopHVAC, PSZ-AC_1:6, Sum of Air Terminal Minimum Heating Flow Rates [m3/s], 0.63261
 Component Sizing Information, AirLoopHVAC, PSZ-AC_1:6, Sum of Air Terminal Maximum Flow Rates [m3/s], 0.63261
 Component Sizing Information, AirLoopHVAC, PSZ-AC_1:6, Adjusted Heating Design Air Flow Rate [m3/s], 0.63261
 Component Sizing Information, AirLoopHVAC, PSZ-AC_1:6, Adjusted Cooling Design Air Flow Rate [m3/s], 0.63261
 Component Sizing Information, AirLoopHVAC, PSZ-AC_1:6, Adjusted Main Design Air Flow Rate [m3/s], 0.63261
 Component Sizing Information, AirLoopHVAC, PSZ-AC_1:6, User Heating Air Flow Ratio [], 1.00000
 Component Sizing Information, AirLoopHVAC, PSZ-AC_1:6, Calculated Heating Air Flow Ratio [], 1.00000
 Component Sizing Information, AirLoopHVAC, PSZ-AC_2:5, Sum of Air Terminal Maximum Heating Flow Rates [m3/s], 1.23542
 Component Sizing Information, AirLoopHVAC, PSZ-AC_2:5, Sum of Air Terminal Minimum Heating Flow Rates [m3/s], 1.23542
 Component Sizing Information, AirLoopHVAC, PSZ-AC_2:5, Sum of Air Terminal Maximum Flow Rates [m3/s], 1.23542
 Component Sizing Information, AirLoopHVAC, PSZ-AC_2:5, Adjusted Heating Design Air Flow Rate [m3/s], 1.23542
 Component Sizing Information, AirLoopHVAC, PSZ-AC_2:5, Adjusted Cooling Design Air Flow Rate [m3/s], 1.23542
 Component Sizing Information, AirLoopHVAC, PSZ-AC_2:5, Adjusted Main Design Air Flow Rate [m3/s], 1.23542
 Component Sizing Information, AirLoopHVAC, PSZ-AC_2:5, User Heating Air Flow Ratio [], 1.00000
 Component Sizing Information, AirLoopHVAC, PSZ-AC_2:5, Calculated Heating Air Flow Ratio [], 1.00000
 Component Sizing Information, AirLoopHVAC, PSZ-AC_2:7, Sum of Air Terminal Maximum Heating Flow Rates [m3/s], 2.26619
 Component Sizing Information, AirLoopHVAC, PSZ-AC_2:7, Sum of Air Terminal Minimum Heating Flow Rates [m3/s], 2.26619
 Component Sizing Information, AirLoopHVAC, PSZ-AC_2:7, Sum of Air Terminal Maximum Flow Rates [m3/s], 2.26619
 Component Sizing Information, AirLoopHVAC, PSZ-AC_2:7, Adjusted Heating Design Air Flow Rate [m3/s], 2.26619
 Component Sizing Information, AirLoopHVAC, PSZ-AC_2:7, Adjusted Cooling Design Air Flow Rate [m3/s], 2.26619
 Component Sizing Information, AirLoopHVAC, PSZ-AC_2:7, Adjusted Main Design Air Flow Rate [m3/s], 2.26619
 Component Sizing Information, AirLoopHVAC, PSZ-AC_2:7, User Heating Air Flow Ratio [], 1.00000
 Component Sizing Information, AirLoopHVAC, PSZ-AC_2:7, Calculated Heating Air Flow Ratio [], 1.00000
 Component Sizing Information, AirLoopHVAC, VAV_OTHER, Sum of Air Terminal Maximum Heating Flow Rates [m3/s], 1.61778
 Component Sizing Information, AirLoopHVAC, VAV_OTHER, Sum of Air Terminal Minimum Heating Flow Rates [m3/s], 1.61778
 Component Sizing Information, AirLoopHVAC, VAV_OTHER, Sum of Air Terminal Maximum Flow Rates [m3/s], 5.39260
 Component Sizing Information, AirLoopHVAC, VAV_OTHER, Adjusted Heating Design Air Flow Rate [m3/s], 4.28113
 Component Sizing Information, AirLoopHVAC, VAV_OTHER, Adjusted Cooling Design Air Flow Rate [m3/s], 5.39260
 Component Sizing Information, AirLoopHVAC, VAV_OTHER, Adjusted Main Design Air Flow Rate [m3/s], 5.39260
 Component Sizing Information, AirLoopHVAC, VAV_OTHER, User Heating Air Flow Ratio [], 0.30000
 Component Sizing Information, AirLoopHVAC, VAV_OTHER, Calculated Heating Air Flow Ratio [], 0.79389
 Component Sizing Information, AirLoopHVAC, VAV_POD_1, Sum of Air Terminal Maximum Heating Flow Rates [m3/s], 1.48492
 Component Sizing Information, AirLoopHVAC, VAV_POD_1, Sum of Air Terminal Minimum Heating Flow Rates [m3/s], 1.48492
 Component Sizing Information, AirLoopHVAC, VAV_POD_1, Sum of Air Terminal Maximum Flow Rates [m3/s], 4.94973
 Component Sizing Information, AirLoopHVAC, VAV_POD_1, Adjusted Heating Design Air Flow Rate [m3/s], 3.10301
 Component Sizing Information, AirLoopHVAC, VAV_POD_1, Adjusted Cooling Design Air Flow Rate [m3/s], 4.94973
 Component Sizing Information, AirLoopHVAC, VAV_POD_1, Adjusted Main Design Air Flow Rate [m3/s], 4.94973
 Component Sizing Information, AirLoopHVAC, VAV_POD_1, User Heating Air Flow Ratio [], 0.30000
 Component Sizing Information, AirLoopHVAC, VAV_POD_1, Calculated Heating Air Flow Ratio [], 0.62691
 Component Sizing Information, AirLoopHVAC, VAV_POD_2, Sum of Air Terminal Maximum Heating Flow Rates [m3/s], 1.12515
 Component Sizing Information, AirLoopHVAC, VAV_POD_2, Sum of Air Terminal Minimum Heating Flow Rates [m3/s], 1.12515
 Component Sizing Information, AirLoopHVAC, VAV_POD_2, Sum of Air Terminal Maximum Flow Rates [m3/s], 3.75049
 Component Sizing Information, AirLoopHVAC, VAV_POD_2, Adjusted Heating Design Air Flow Rate [m3/s], 2.57889
 Component Sizing Information, AirLoopHVAC, VAV_POD_2, Adjusted Cooling Design Air Flow Rate [m3/s], 3.75049
 Component Sizing Information, AirLoopHVAC, VAV_POD_2, Adjusted Main Design Air Flow Rate [m3/s], 3.75049
 Component Sizing Information, AirLoopHVAC, VAV_POD_2, User Heating Air Flow Ratio [], 0.30000
 Component Sizing Information, AirLoopHVAC, VAV_POD_2, Calculated Heating Air Flow Ratio [], 0.68761
 Component Sizing Information, AirLoopHVAC, VAV_POD_3, Sum of Air Terminal Maximum Heating Flow Rates [m3/s], 1.17592
 Component Sizing Information, AirLoopHVAC, VAV_POD_3, Sum of Air Terminal Minimum Heating Flow Rates [m3/s], 1.17592
 Component Sizing Information, AirLoopHVAC, VAV_POD_3, Sum of Air Terminal Maximum Flow Rates [m3/s], 3.91973
 Component Sizing Information, AirLoopHVAC, VAV_POD_3, Adjusted Heating Design Air Flow Rate [m3/s], 2.51180
 Component Sizing Information, AirLoopHVAC, VAV_POD_3, Adjusted Cooling Design Air Flow Rate [m3/s], 3.91973
 Component Sizing Information, AirLoopHVAC, VAV_POD_3, Adjusted Main Design Air Flow Rate [m3/s], 3.91973
 Component Sizing Information, AirLoopHVAC, VAV_POD_3, User Heating Air Flow Ratio [], 0.30000
 Component Sizing Information, AirLoopHVAC, VAV_POD_3, Calculated Heating Air Flow Ratio [], 0.64081
 Component Sizing Information, AirLoopHVAC, PSZ-AC_1:6, Design Supply Air Flow Rate [m3/s], 0.63261
 Component Sizing Information, AirLoopHVAC, PSZ-AC_2:5, Design Supply Air Flow Rate [m3/s], 1.23542
 Component Sizing Information, AirLoopHVAC, PSZ-AC_2:7, Design Supply Air Flow Rate [m3/s], 2.26619
 Component Sizing Information, AirLoopHVAC, VAV_OTHER, Design Supply Air Flow Rate [m3/s], 5.39260
 Component Sizing Information, AirLoopHVAC, VAV_POD_1, Design Supply Air Flow Rate [m3/s], 4.94973
 Component Sizing Information, AirLoopHVAC, VAV_POD_2, Design Supply Air Flow Rate [m3/s], 3.75049
 Component Sizing Information, AirLoopHVAC, VAV_POD_3, Design Supply Air Flow Rate [m3/s], 3.91973
 Component Sizing Information, Controller:OutdoorAir, PSZ-AC_1:6_OA_CONTROLLER, Maximum Outdoor Air Flow Rate [m3/s], 0.63261
 Component Sizing Information, Controller:OutdoorAir, PSZ-AC_1:6_OA_CONTROLLER, Minimum Outdoor Air Flow Rate [m3/s], 0.20160
 Component Sizing Information, Coil:Cooling:DX:SingleSpeed, PSZ-AC_1:6_COOLC DXCOIL, Design Size Rated Air Flow Rate [m3/s], 0.63261
 Component Sizing Information, Coil:Cooling:DX:SingleSpeed, PSZ-AC_1:6_COOLC DXCOIL, Design Size Gross Rated Total Cooling Capacity [W], 15709.09986
 Component Sizing Information, Coil:Cooling:DX:SingleSpeed, PSZ-AC_1:6_COOLC DXCOIL, Design Size Gross Rated Sensible Heat Ratio, 0.69808
! <DX Cooling Coil Standard Rating Information>, Component Type, Component Name, Standard Rating (Net) Cooling Capacity {W}, Standard Rated Net COP {W/W}, EER {Btu/W-h}, SEER {Btu/W-h}, IEER {Btu/W-h}
 DX Cooling Coil Standard Rating Information, Coil:Cooling:DX:SingleSpeed, PSZ-AC_1:6_COOLC DXCOIL, 15218.3, 3.19, 10.88, 12.53, 12.16
 Component Sizing Information, Coil:Heating:Electric, PSZ-AC_1:6_HEATC, Design Size Nominal Capacity [W], 42275.18655
 Component Sizing Information, Fan:ConstantVolume, PSZ-AC_1:6_FAN, Design Size Maximum Flow Rate [m3/s], 0.63261
 Component Sizing Information, Controller:OutdoorAir, PSZ-AC_2:5_OA_CONTROLLER, Maximum Outdoor Air Flow Rate [m3/s], 1.23542
 Component Sizing Information, Controller:OutdoorAir, PSZ-AC_2:5_OA_CONTROLLER, Minimum Outdoor Air Flow Rate [m3/s], 1.07207
 Component Sizing Information, Coil:Cooling:DX:SingleSpeed, PSZ-AC_2:5_COOLC DXCOIL, Design Size Rated Air Flow Rate [m3/s], 1.23542
 Component Sizing Information, Coil:Cooling:DX:SingleSpeed, PSZ-AC_2:5_COOLC DXCOIL, Design Size Gross Rated Total Cooling Capacity [W], 30678.52107
 Component Sizing Information, Coil:Cooling:DX:SingleSpeed, PSZ-AC_2:5_COOLC DXCOIL, Design Size Gross Rated Sensible Heat Ratio, 0.69808
 DX Cooling Coil Standard Rating Information, Coil:Cooling:DX:SingleSpeed, PSZ-AC_2:5_COOLC DXCOIL, 29720.1, 3.06, 10.43, 12.03, 11.72
 Component Sizing Information, Coil:Heating:Electric, PSZ-AC_2:5_HEATC, Design Size Nominal Capacity [W], 75066.30923
 Component Sizing Information, Fan:ConstantVolume, PSZ-AC_2:5_FAN, Design Size Maximum Flow Rate [m3/s], 1.23542
 Component Sizing Information, Controller:OutdoorAir, PSZ-AC_2:7_OA_CONTROLLER, Maximum Outdoor Air Flow Rate [m3/s], 2.26619
 Component Sizing Information, Controller:OutdoorAir, PSZ-AC_2:7_OA_CONTROLLER, Minimum Outdoor Air Flow Rate [m3/s], 2.26619
 Component Sizing Information, Coil:Cooling:DX:TwoSpeed, PSZ-AC_2:7_COOLC DXCOIL, Design Size High Speed Rated Air Flow Rate [m3/s], 2.26619
 Component Sizing Information, Coil:Cooling:DX:TwoSpeed, PSZ-AC_2:7_COOLC DXCOIL, Design Size High Speed Gross Rated Total Cooling Capacity [W], 56274.82122
 Component Sizing Information, Coil:Cooling:DX:TwoSpeed, PSZ-AC_2:7_COOLC DXCOIL, Design Size High Speed Rated Sensible Heat Ratio, 0.69808
 Component Sizing Information, Coil:Cooling:DX:TwoSpeed, PSZ-AC_2:7_COOLC DXCOIL, Design Size Low Speed Rated Air Flow Rate [m3/s], 0.75532
 Component Sizing Information, Coil:Cooling:DX:TwoSpeed, PSZ-AC_2:7_COOLC DXCOIL, Design Size Low Speed Gross Rated Total Cooling Capacity [W], 18756.39791
 Component Sizing Information, Coil:Cooling:DX:TwoSpeed, PSZ-AC_2:7_COOLC DXCOIL, Design Size Low Speed Gross Rated Sensible Heat Ratio, 0.69808
 Component Sizing Information, Coil:Heating:Electric, PSZ-AC_2:7_HEATC, Design Size Nominal Capacity [W], 151442.70434
 Component Sizing Information, Fan:ConstantVolume, PSZ-AC_2:7_FAN, Design Size Maximum Flow Rate [m3/s], 2.26619
 Component Sizing Information, Controller:OutdoorAir, VAV_OTHER_OA_CONTROLLER, Maximum Outdoor Air Flow Rate [m3/s], 5.39260
 Component Sizing Information, Controller:OutdoorAir, VAV_OTHER_OA_CONTROLLER, Minimum Outdoor Air Flow Rate [m3/s], 2.23998
 Component Sizing Information, Coil:Cooling:DX:TwoSpeed, VAV_OTHER_COOLC DXCOIL, Design Size High Speed Rated Air Flow Rate [m3/s], 5.39260
 Component Sizing Information, Coil:Cooling:DX:TwoSpeed, VAV_OTHER_COOLC DXCOIL, Design Size High Speed Gross Rated Total Cooling Capacity [W], 133911.20751
 Component Sizing Information, Coil:Cooling:DX:TwoSpeed, VAV_OTHER_COOLC DXCOIL, Design Size High Speed Rated Sensible Heat Ratio, 0.69808
 Component Sizing Information, Coil:Cooling:DX:TwoSpeed, VAV_OTHER_COOLC DXCOIL, Design Size Low Speed Rated Air Flow Rate [m3/s], 1.79736
 Component Sizing Information, Coil:Cooling:DX:TwoSpeed, VAV_OTHER_COOLC DXCOIL, Design Size Low Speed Gross Rated Total Cooling Capacity [W], 44632.60546
 Component Sizing Information, Coil:Cooling:DX:TwoSpeed, VAV_OTHER_COOLC DXCOIL, Design Size Low Speed Gross Rated Sensible Heat Ratio, 0.69808
! <VAV DX Cooling Coil Standard Rating Information>, DX Coil Type, DX Coil Name, Fan Type, Fan Name, Standard Net Cooling Capacity {W}, Standard Net Cooling Capacity {Btu/h}, IEER {Btu/W-h}, COP 100% Capacity {W/W}, COP 75% Capacity {W/W}, COP 50% Capacity {W/W}, COP 25% Capacity {W/W}, EER 100% Capacity {Btu/W-h}, EER 75% Capacity {Btu/W-h}, EER 50% Capacity {Btu/W-h}, EER 25% Capacity {Btu/W-h}, Supply Air Flow 100% {kg/s}, Supply Air Flow 75% {kg/s},Supply Air Flow 50% {kg/s},Supply Air Flow 25% {kg/s}
 VAV DX Cooling Coil Standard Rating Information, Coil:Cooling:DX:TwoSpeed,VAV_OTHER_COOLC DXCOIL,N/A,N/A,129541.78,442014.90,11.81,2.84,3.30,3.74,3.83,9.69,11.27,12.74,13.06,5.6837,4.5577,3.0572,1.3318,
 Component Sizing Information, Coil:Heating:Water, VAV_OTHER_HEATC, Design Size Rated Capacity [W], 66543.95678
 Component Sizing Information, Coil:Heating:Water, VAV_OTHER_HEATC, Design Size Maximum Water Flow Rate [m3/s], 1.45696E-003
 Component Sizing Information, Coil:Heating:Water, VAV_OTHER_HEATC, Design Size U-Factor Times Area Value [W/K], 874.23491
Water Heating Coil Capacity Information,Coil:Heating:Water,VAV_OTHER_HEATC,42601.71
 Component Sizing Information, Fan:VariableVolume, VAV_OTHER_FAN, Design Size Maximum Flow Rate [m3/s], 5.39260
 Component Sizing Information, Controller:WaterCoil, VAV_OTHER_HEATC_CONTROLLER, Maximum Actuated Flow [m3/s], 1.45696E-003
 Component Sizing Information, Controller:OutdoorAir, VAV_POD_1_OA_CONTROLLER, Maximum Outdoor Air Flow Rate [m3/s], 4.94973
 Component Sizing Information, Controller:OutdoorAir, VAV_POD_1_OA_CONTROLLER, Minimum Outdoor Air Flow Rate [m3/s], 2.59800
 Component Sizing Information, Coil:Cooling:DX:TwoSpeed, VAV_POD_1_COOLC DXCOIL, Design Size High Speed Rated Air Flow Rate [m3/s], 4.94973
 Component Sizing Information, Coil:Cooling:DX:TwoSpeed, VAV_POD_1_COOLC DXCOIL, Design Size High Speed Gross Rated Total Cooling Capacity [W], 122913.48841
 Component Sizing Information, Coil:Cooling:DX:TwoSpeed, VAV_POD_1_COOLC DXCOIL, Design Size High Speed Rated Sensible Heat Ratio, 0.69808
 Component Sizing Information, Coil:Cooling:DX:TwoSpeed, VAV_POD_1_COOLC DXCOIL, Design Size Low Speed Rated Air Flow Rate [m3/s], 1.64974
 Component Sizing Information, Coil:Cooling:DX:TwoSpeed, VAV_POD_1_COOLC DXCOIL, Design Size Low Speed Gross Rated Total Cooling Capacity [W], 40967.06569
 Component Sizing Information, Coil:Cooling:DX:TwoSpeed, VAV_POD_1_COOLC DXCOIL, Design Size Low Speed Gross Rated Sensible Heat Ratio, 0.69808
 VAV DX Cooling Coil Standard Rating Information, Coil:Cooling:DX:TwoSpeed,VAV_POD_1_COOLC DXCOIL,N/A,N/A,118902.91,405713.56,11.81,2.84,3.30,3.74,3.83,9.69,11.27,12.74,13.06,5.2169,4.1834,2.8061,1.2224,
 Component Sizing Information, Coil:Heating:Water, VAV_POD_1_HEATC, Design Size Rated Capacity [W], 61078.90454
 Component Sizing Information, Coil:Heating:Water, VAV_POD_1_HEATC, Design Size Maximum Water Flow Rate [m3/s], 1.33731E-003
 Component Sizing Information, Coil:Heating:Water, VAV_POD_1_HEATC, Design Size U-Factor Times Area Value [W/K], 802.43667
Water Heating Coil Capacity Information,Coil:Heating:Water,VAV_POD_1_HEATC,39102.96
 Component Sizing Information, Fan:VariableVolume, VAV_POD_1_FAN, Design Size Maximum Flow Rate [m3/s], 4.94973
 Component Sizing Information, Controller:WaterCoil, VAV_POD_1_HEATC_CONTROLLER, Maximum Actuated Flow [m3/s], 1.33731E-003
 Component Sizing Information, Controller:OutdoorAir, VAV_POD_2_OA_CONTROLLER, Maximum Outdoor Air Flow Rate [m3/s], 3.75049
 Component Sizing Information, Controller:OutdoorAir, VAV_POD_2_OA_CONTROLLER, Minimum Outdoor Air Flow Rate [m3/s], 2.20200
 Component Sizing Information, Coil:Cooling:DX:TwoSpeed, VAV_POD_2_COOLC DXCOIL, Design Size High Speed Rated Air Flow Rate [m3/s], 3.75049
 Component Sizing Information, Coil:Cooling:DX:TwoSpeed, VAV_POD_2_COOLC DXCOIL, Design Size High Speed Gross Rated Total Cooling Capacity [W], 93133.63388
 Component Sizing Information, Coil:Cooling:DX:TwoSpeed, VAV_POD_2_COOLC DXCOIL, Design Size High Speed Rated Sensible Heat Ratio, 0.69808
 Component Sizing Information, Coil:Cooling:DX:TwoSpeed, VAV_POD_2_COOLC DXCOIL, Design Size Low Speed Rated Air Flow Rate [m3/s], 1.25004
 Component Sizing Information, Coil:Cooling:DX:TwoSpeed, VAV_POD_2_COOLC DXCOIL, Design Size Low Speed Gross Rated Total Cooling Capacity [W], 31041.44017
 Component Sizing Information, Coil:Cooling:DX:TwoSpeed, VAV_POD_2_COOLC DXCOIL, Design Size Low Speed Gross Rated Sensible Heat Ratio, 0.69808
 VAV DX Cooling Coil Standard Rating Information, Coil:Cooling:DX:TwoSpeed,VAV_POD_2_COOLC DXCOIL,N/A,N/A,90094.75,307416.05,11.81,2.84,3.30,3.74,3.83,9.69,11.27,12.74,13.06,3.9529,3.1699,2.1262,0.9262,
 Component Sizing Information, Coil:Heating:Water, VAV_POD_2_HEATC, Design Size Rated Capacity [W], 46280.52142
 Component Sizing Information, Coil:Heating:Water, VAV_POD_2_HEATC, Design Size Maximum Water Flow Rate [m3/s], 1.01330E-003
 Component Sizing Information, Coil:Heating:Water, VAV_POD_2_HEATC, Design Size U-Factor Times Area Value [W/K], 608.01987
Water Heating Coil Capacity Information,Coil:Heating:Water,VAV_POD_2_HEATC,29628.98
 Component Sizing Information, Fan:VariableVolume, VAV_POD_2_FAN, Design Size Maximum Flow Rate [m3/s], 3.75049
 Component Sizing Information, Controller:WaterCoil, VAV_POD_2_HEATC_CONTROLLER, Maximum Actuated Flow [m3/s], 1.01330E-003
 Component Sizing Information, Controller:OutdoorAir, VAV_POD_3_OA_CONTROLLER, Maximum Outdoor Air Flow Rate [m3/s], 3.91973
 Component Sizing Information, Controller:OutdoorAir, VAV_POD_3_OA_CONTROLLER, Minimum Outdoor Air Flow Rate [m3/s], 2.07600
 Component Sizing Information, Coil:Cooling:DX:TwoSpeed, VAV_POD_3_COOLC DXCOIL, Design Size High Speed Rated Air Flow Rate [m3/s], 3.91973
 Component Sizing Information, Coil:Cooling:DX:TwoSpeed, VAV_POD_3_COOLC DXCOIL, Design Size High Speed Gross Rated Total Cooling Capacity [W], 97336.31804
 Component Sizing Information, Coil:Cooling:DX:TwoSpeed, VAV_POD_3_COOLC DXCOIL, Design Size High Speed Rated Sensible Heat Ratio, 0.69808
 Component Sizing Information, Coil:Cooling:DX:TwoSpeed, VAV_POD_3_COOLC DXCOIL, Design Size Low Speed Rated Air Flow Rate [m3/s], 1.30645
 Component Sizing Information, Coil:Cooling:DX:TwoSpeed, VAV_POD_3_COOLC DXCOIL, Design Size Low Speed Gross Rated Total Cooling Capacity [W], 32442.19480
 Component Sizing Information, Coil:Cooling:DX:TwoSpeed, VAV_POD_3_COOLC DXCOIL, Design Size Low Speed Gross Rated Sensible Heat Ratio, 0.69808
